pglib_opf_case6470_rte.m
%%%%%%%%%%%%%%%%%%%%%%%%%%%%%%%%%%%%%%%%%%%%%%%%%%%%%%%%%%%%%%%%%%%%%%%%%%%
%%%%                                                                  %%%%%
%%%%    IEEE PES Power Grid Library - Optimal Power Flow - v23.07     %%%%%
%%%%          (https://github.com/power-grid-lib/pglib-opf)           %%%%%
%%%%               Benchmark Group - Typical Operations               %%%%%
%%%%                         23 - July - 2023                         %%%%%
%%%%                                                                  %%%%%
%%%%%%%%%%%%%%%%%%%%%%%%%%%%%%%%%%%%%%%%%%%%%%%%%%%%%%%%%%%%%%%%%%%%%%%%%%%
%
%CASE6470RTE
%   AC Power flow data for French system.
%   Please see CASEFORMAT for details on the case file format.
%
%   This case accurately represents the size and complexity of French
%   very high voltage and high voltage transmission network.
%   These data are snapshots of French VHV+HV grid in 2013.
%   These data can be used to validate mathematical methods and tools.
%   These data should NOT be used for operation
%   nor planning of the French or European grids.
%
%   When publishing results using this data, please cite:
%     C. Josz, S. Fliscounakis, J. Maeght, and P. Panciatici,
%     "AC Power Flow Data in MATPOWER and QCQP Format: iTesla, RTE Snapshots, and PEGASE"
%     http://arxiv.org/abs/1603.01533
%
%   Contacts (primary contact for this file : Jean Maeght):
%   Cédric Josz, Stéphane Fliscounakis, Jean Maeght, Patrick Panciatici
%   firstname.lastname@rte-france.com
%   Réseau de Transport d'Electricité (French Transmission System Operator)
%   Département Expertise Système, Immeuble "Le Colbert"
%   9 rue de la Porte de Buc, 78000 Versailles Cedex, France
%   March 4th, 2016
%
%   Copyright (c) 2016 by Cédric Josz, Stéphane Fliscounakis, Jean Maeght,
%   and Patrick Panciatici
%   Licensed under the Creative Commons Attribution 4.0 International license,
%   http://creativecommons.org/licenses/by/4.0/
%
function mpc = pglib_opf_case6470_rte
mpc.version = '2';
mpc.baseMVA = 100.0;

%% bus data
%	bus_i	type	Pd	Qd	Gs	Bs	area	Vm	Va	baseKV	zone	Vmax	Vmin
mpc.bus = [
	1	 1	 0.0	 0.0	 0.0	 0.0	 1	    0.94444	    0.00000	 45.0	 1	    1.00000	    0.88889;
	2	 1	 0.0	 0.0	 0.0	 0.0	 1	    1.00000	    0.00000	 63.0	 1	    1.06349	    0.93651;
	3	 1	 12.5	 -0.7	 0.0	 0.0	 1	    1.01588	    0.00000	 63.0	 1	    1.07937	    0.95238;
	4	 1	 44.7	 -0.9	 0.0	 0.0	 1	    1.01111	    0.00000	 90.0	 1	    1.08889	    0.93333;
	5	 1	 12.0	 0.1	 0.0	 0.0	 1	    1.00794	    0.00000	 63.0	 1	    1.06349	    0.95238;
	6	 1	 13.0	 4.3	 0.0	 0.0	 1	    1.00000	    0.00000	 63.0	 1	    1.07937	    0.92063;
	7	 1	 1.2	 0.8	 0.0	 0.0	 1	    1.00000	    0.00000	 63.0	 1	    1.07937	    0.92063;
	8	 1	 25.8	 4.9	 0.0	 0.0	 1	    0.98889	    0.00000	 225.0	 1	    1.08889	    0.88889;
	9	 1	 12.9	 0.0	 0.0	 0.0	 1	    1.00000	    0.00000	 63.0	 1	    1.06349	    0.93651;
	10	 1	 0.0	 0.0	 0.0	 0.0	 1	    1.00000	    0.00000	 90.0	 1	    1.07778	    0.92222;
	11	 1	 28.8	 1.1	 0.0	 0.0	 1	    1.00000	    0.00000	 90.0	 1	    1.07778	    0.92222;
	12	 1	 0.0	 0.0	 0.0	 0.0	 1	    1.01588	    0.00000	 63.0	 1	    1.07937	    0.95238;
	13	 1	 0.0	 0.0	 0.0	 0.0	 1	    1.07895	    0.00000	 380.0	 1	    1.10263	    1.05526;
	14	 1	 51.5	 1.9	 0.0	 0.0	 1	    1.02778	    0.00000	 90.0	 1	    1.07778	    0.97778;
	15	 1	 0.0	 0.0	 0.0	 0.0	 1	    1.00000	    0.00000	 63.0	 1	    1.07937	    0.92063;
	16	 1	 13.8	 4.1	 0.0	 0.0	 1	    1.00000	    0.00000	 63.0	 1	    1.07937	    0.92063;
	17	 1	 13.1	 0.2	 0.0	 0.0	 1	    1.02222	    0.00000	 90.0	 1	    1.06667	    0.97778;
	18	 1	 0.0	 0.0	 0.0	 0.0	 1	    0.94444	    0.00000	 45.0	 1	    1.00000	    0.88889;
	19	 1	 1.0	 0.0	 0.0	 0.0	 1	    1.00000	    0.00000	 63.0	 1	    1.06349	    0.93651;
	20	 1	 0.9	 -21.5	 0.0	 0.0	 1	    0.94444	    0.00000	 45.0	 1	    1.00000	    0.88889;
	21	 1	 8.3	 -3.3	 0.0	 0.0	 1	    1.02222	    0.00000	 90.0	 1	    1.06667	    0.97778;
	22	 1	 18.0	 1.1	 0.0	 0.0	 1	    1.01588	    0.00000	 63.0	 1	    1.07937	    0.95238;
	23	 1	 19.2	 3.4	 0.0	 0.0	 1	    1.00000	    0.00000	 63.0	 1	    1.06349	    0.93651;
	24	 1	 16.1	 -1.6	 0.0	 0.0	 1	    1.03333	    0.00000	 90.0	 1	    1.11111	    0.95556;
	25	 1	 59.9	 -3.2	 0.0	 0.0	 1	    1.02222	    0.00000	 90.0	 1	    1.10000	    0.94444;
	26	 1	 35.1	 8.1	 0.0	 0.0	 1	    1.02222	    0.00000	 90.0	 1	    1.06667	    0.97778;
	27	 1	 0.0	 0.0	 0.0	 0.0	 1	    1.04444	    0.00000	 225.0	 1	    1.08444	    1.00444;
	28	 1	 0.7	 0.2	 0.0	 0.0	 1	    1.01588	    0.00000	 63.0	 1	    1.07937	    0.95238;
	29	 1	 60.1	 2.7	 0.0	 0.0	 1	    1.01587	    0.00000	 63.0	 1	    1.06349	    0.96825;
	30	 1	 33.5	 -0.9	 0.0	 0.0	 1	    1.01111	    0.00000	 90.0	 1	    1.08889	    0.93333;
	31	 1	 0.0	 0.0	 0.0	 0.0	 1	    1.00000	    0.00000	 63.0	 1	    1.06349	    0.93651;
	32	 1	 0.0	 0.0	 0.0	 0.0	 1	    1.00334	    0.00000	 150.0	 1	    1.10667	    0.90000;
	33	 1	 0.0	 0.0	 0.0	 0.0	 1	    1.01111	    0.00000	 225.0	 1	    1.08889	    0.93333;
	34	 1	 0.0	 0.0	 0.0	 0.0	 1	    1.01111	    0.00000	 225.0	 1	    1.08889	    0.93333;
	35	 1	 0.0	 0.0	 0.0	 0.0	 1	    1.07237	    0.00000	 380.0	 1	    1.10526	    1.03947;
	36	 1	 0.0	 0.0	 0.0	 0.0	 1	    1.07237	    0.00000	 380.0	 1	    1.10526	    1.03947;
	37	 1	 3.2	 4.3	 0.0	 0.0	 1	    1.00000	    0.00000	 63.0	 1	    1.07937	    0.92063;
	38	 1	 6.0	 -2.0	 0.0	 0.0	 1	    1.01587	    0.00000	 63.0	 1	    1.09524	    0.93651;
	39	 1	 41.0	 -3.3	 0.0	 0.0	 1	    1.02778	    0.00000	 90.0	 1	    1.07778	    0.97778;
	40	 1	 32.6	 0.5	 0.0	 0.0	 1	    1.02778	    0.00000	 90.0	 1	    1.07778	    0.97778;
	41	 1	 0.0	 0.0	 0.0	 0.0	 1	    1.04666	    0.00000	 225.0	 1	    1.08889	    1.00444;
	42	 1	 0.0	 0.0	 0.0	 0.0	 1	    1.04249	    0.00000	 63.0	 1	    1.13259	    0.95238;
	43	 1	 3.6	 2.0	 0.0	 0.0	 1	    1.02778	    0.00000	 90.0	 1	    1.07778	    0.97778;
	44	 1	 13.0	 -0.7	 0.0	 0.0	 1	    1.00794	    0.00000	 63.0	 1	    1.06349	    0.95238;
	45	 1	 3.9	 1.7	 0.0	 0.0	 1	    1.02222	    0.00000	 90.0	 1	    1.06667	    0.97778;
	46	 1	 0.0	 0.0	 0.0	 0.0	 1	    1.00000	    0.00000	 63.0	 1	    1.06349	    0.93651;
	47	 2	 0.0	 0.0	 0.0	 0.0	 1	    1.00000	    0.00000	 63.0	 1	    1.06349	    0.93651;
	48	 1	 36.5	 3.4	 0.0	 0.0	 1	    1.00000	    0.00000	 90.0	 1	    1.07778	    0.92222;
	49	 1	 8.8	 -1.7	 0.0	 0.0	 1	    1.00000	    0.00000	 63.0	 1	    1.06349	    0.93651;
	50	 1	 0.0	 0.0	 0.0	 0.0	 1	    1.00331	    0.00000	 63.0	 1	    1.07012	    0.93651;
	51	 1	 0.0	 0.0	 0.0	 0.0	 1	    1.01111	    0.00000	 225.0	 1	    1.08889	    0.93333;
	52	 1	 5.0	 2.4	 0.0	 0.0	 1	    1.02222	    0.00000	 90.0	 1	    1.06667	    0.97778;
	53	 1	 2.5	 -0.5	 0.0	 0.0	 1	    1.00000	    0.00000	 63.0	 1	    1.04762	    0.95238;
	54	 1	 -0.4	 -0.0	 0.0	 0.0	 1	    1.02222	    0.00000	 90.0	 1	    1.06667	    0.97778;
	55	 1	 37.6	 6.7	 0.0	 0.0	 1	    1.04666	    0.00000	 225.0	 1	    1.08889	    1.00444;
	56	 1	 52.1	 13.5	 0.0	 0.0	 1	    1.04666	    0.00000	 225.0	 1	    1.08889	    1.00444;
	57	 2	 0.0	 0.0	 0.0	 0.0	 1	    1.00000	    0.00000	 63.0	 1	    1.07937	    0.92063;
	58	 1	 130.6	 30.1	 0.0	 0.0	 1	    1.04666	    0.00000	 225.0	 1	    1.08889	    1.00444;
	59	 1	 5.1	 1.3	 0.0	 0.0	 1	    1.01588	    0.00000	 63.0	 1	    1.07937	    0.95238;
	60	 1	 0.0	 0.0	 0.0	 0.0	 1	    1.01588	    0.00000	 63.0	 1	    1.07937	    0.95238;
	61	 1	 39.5	 9.7	 0.0	 0.0	 1	    1.01588	    0.00000	 63.0	 1	    1.07937	    0.95238;
	62	 1	 0.0	 0.0	 0.0	 0.0	 1	    1.01588	    0.00000	 63.0	 1	    1.07937	    0.95238;
	63	 1	 15.8	 2.0	 0.0	 0.0	 1	    1.01588	    0.00000	 63.0	 1	    1.07937	    0.95238;
	64	 1	 62.4	 1.0	 0.0	 0.0	 1	    0.98889	    0.00000	 225.0	 1	    1.08889	    0.88889;
	65	 1	 11.0	 2.8	 0.0	 0.0	 1	    1.01588	    0.00000	 63.0	 1	    1.07937	    0.95238;
	66	 1	 13.2	 -7.9	 0.0	 0.0	 1	    1.00000	    0.00000	 63.0	 1	    1.06349	    0.93651;
	67	 1	 0.0	 0.0	 0.0	 0.0	 1	    1.00000	    0.00000	 63.0	 1	    1.07937	    0.92063;
	68	 1	 48.1	 -0.1	 0.0	 0.0	 1	    1.00000	    0.00000	 63.0	 1	    1.06349	    0.93651;
	69	 1	 19.3	 -2.7	 0.0	 0.0	 1	    1.00794	    0.00000	 63.0	 1	    1.06349	    0.95238;
	70	 1	 10.6	 2.7	 0.0	 0.0	 1	    1.01588	    0.00000	 63.0	 1	    1.07937	    0.95238;
	71	 1	 62.4	 14.9	 0.0	 0.0	 1	    1.00000	    0.00000	 63.0	 1	    1.04762	    0.95238;
	72	 1	 0.0	 0.0	 0.0	 0.0	 1	    1.04736	    0.00000	 225.0	 1	    1.09027	    1.00444;
	73	 1	 0.0	 0.0	 0.0	 0.0	 1	    1.04734	    0.00000	 225.0	 1	    1.09025	    1.00444;
	74	 1	 50.4	 -9.9	 0.0	 0.0	 1	    0.98889	    0.00000	 225.0	 1	    1.08889	    0.88889;
	75	 1	 22.3	 1.8	 0.0	 0.0	 1	    1.02254	    0.00000	 90.0	 1	    1.06730	    0.97778;
	76	 1	 2.6	 -0.4	 0.0	 0.0	 1	    1.03795	    0.00000	 225.0	 1	    1.08923	    0.98667;
	77	 1	 36.8	 -0.4	 0.0	 0.0	 1	    1.00000	    0.00000	 63.0	 1	    1.06349	    0.93651;
	78	 1	 0.0	 0.0	 0.0	 0.0	 1	    1.00000	    0.00000	 63.0	 1	    1.07937	    0.92063;
	79	 1	 0.0	 0.0	 0.0	 0.0	 1	    1.00000	    0.00000	 63.0	 1	    1.04762	    0.95238;
	80	 1	 32.3	 7.3	 0.0	 0.0	 1	    1.04666	    0.00000	 225.0	 1	    1.08889	    1.00444;
	81	 1	 36.3	 9.9	 0.0	 0.0	 1	    1.04666	    0.00000	 225.0	 1	    1.08889	    1.00444;
	82	 1	 11.7	 1.6	 0.0	 0.0	 1	    1.00000	    0.00000	 63.0	 1	    1.06349	    0.93651;
	83	 1	 77.5	 26.4	 0.0	 0.0	 1	    1.04666	    0.00000	 225.0	 1	    1.08889	    1.00444;
	84	 1	 -1.6	 -1.2	 0.0	 0.0	 1	    1.00000	    0.00000	 63.0	 1	    1.06349	    0.93651;
	85	 1	 2.1	 -2.1	 0.0	 0.0	 1	    1.00000	    0.00000	 63.0	 1	    1.06349	    0.93651;
	86	 1	 48.9	 3.6	 0.0	 0.0	 1	    1.02222	    0.00000	 90.0	 1	    1.06667	    0.97778;
	87	 1	 0.0	 0.0	 0.0	 0.0	 1	    1.01588	    0.00000	 63.0	 1	    1.07937	    0.95238;
	88	 1	 13.5	 -0.1	 0.0	 0.0	 1	    1.00000	    0.00000	 63.0	 1	    1.06349	    0.93651;
	89	 1	 25.4	 0.8	 0.0	 0.0	 1	    1.02778	    0.00000	 90.0	 1	    1.07778	    0.97778;
	90	 1	 0.4	 -1.4	 0.0	 0.0	 1	    0.94444	    0.00000	 45.0	 1	    1.00000	    0.88889;
	91	 1	 1.0	 0.0	 0.0	 0.0	 1	    0.94444	    0.00000	 45.0	 1	    1.00000	    0.88889;
	92	 1	 28.6	 3.2	 0.0	 0.0	 1	    1.01587	    0.00000	 63.0	 1	    1.06349	    0.96825;
	93	 1	 2.1	 -2.5	 0.0	 0.0	 1	    0.94444	    0.00000	 45.0	 1	    1.00000	    0.88889;
	94	 1	 17.5	 -4.3	 0.0	 0.0	 1	    1.02222	    0.00000	 90.0	 1	    1.06667	    0.97778;
	95	 1	 46.5	 7.6	 0.0	 0.0	 1	    1.02222	    0.00000	 90.0	 1	    1.06667	    0.97778;
	96	 1	 1.5	 -0.7	 0.0	 0.0	 1	    1.00000	    0.00000	 63.0	 1	    1.06349	    0.93651;
	97	 1	 56.4	 0.9	 0.0	 0.0	 1	    1.00000	    0.00000	 63.0	 1	    1.07937	    0.92063;
	98	 1	 7.4	 -1.3	 0.0	 0.0	 1	    1.01588	    0.00000	 63.0	 1	    1.07937	    0.95238;
	99	 1	 26.9	 3.1	 0.0	 0.0	 1	    1.01588	    0.00000	 63.0	 1	    1.07937	    0.95238;
	100	 1	 53.3	 8.6	 0.0	 0.0	 1	    1.00000	    0.00000	 63.0	 1	    1.06349	    0.93651;
	101	 1	 17.7	 0.5	 0.0	 0.0	 1	    1.00000	    0.00000	 63.0	 1	    1.06349	    0.93651;
	102	 2	 0.0	 0.0	 0.0	 0.0	 1	    1.01588	    0.00000	 63.0	 1	    1.07937	    0.95238;
	103	 1	 18.0	 -1.1	 0.0	 0.0	 1	    1.01588	    0.00000	 63.0	 1	    1.07937	    0.95238;
	104	 1	 0.0	 0.0	 0.0	 0.0	 1	    1.03778	    0.00000	 225.0	 1	    1.08889	    0.98667;
	105	 1	 35.5	 1.0	 0.0	 0.0	 1	    0.98889	    0.00000	 225.0	 1	    1.08889	    0.88889;
	106	 1	 49.8	 7.5	 0.0	 0.0	 1	    1.02222	    0.00000	 90.0	 1	    1.10000	    0.94444;
	107	 1	 77.6	 8.1	 0.0	 0.0	 1	    1.04666	    0.00000	 225.0	 1	    1.08444	    1.00889;
	108	 1	 12.6	 -0.4	 0.0	 0.0	 1	    1.02778	    0.00000	 90.0	 1	    1.07778	    0.97778;
	109	 1	 68.7	 10.9	 0.0	 0.0	 1	    1.00000	    0.00000	 63.0	 1	    1.06349	    0.93651;
	110	 1	 0.0	 0.0	 0.0	 0.0	 1	    1.01111	    0.00000	 225.0	 1	    1.08889	    0.93333;
	111	 1	 36.5	 -7.9	 0.0	 0.0	 1	    1.01587	    0.00000	 63.0	 1	    1.06349	    0.96825;
	112	 1	 0.0	 0.0	 0.0	 0.0	 1	    1.00000	    0.00000	 63.0	 1	    1.04762	    0.95238;
	113	 1	 0.0	 0.0	 0.0	 0.0	 1	    1.04666	    0.00000	 225.0	 1	    1.08889	    1.00444;
	114	 1	 10.8	 -0.0	 0.0	 0.0	 1	    1.00000	    0.00000	 63.0	 1	    1.06349	    0.93651;
	115	 1	 0.0	 0.0	 0.0	 0.0	 1	    1.07895	    0.00000	 380.0	 1	    1.10526	    1.05263;
	116	 1	 0.0	 0.0	 0.0	 0.0	 1	    1.07895	    0.00000	 380.0	 1	    1.10526	    1.05263;
	117	 1	 15.4	 -1.0	 0.0	 0.0	 1	    1.01588	    0.00000	 63.0	 1	    1.07937	    0.95238;
	118	 1	 2.0	 0.8	 0.0	 0.0	 1	    1.02368	    0.00000	 90.0	 1	    1.06958	    0.97778;
	119	 1	 37.2	 5.3	 0.0	 0.0	 1	    1.00000	    0.00000	 63.0	 1	    1.06349	    0.93651;
	120	 1	 17.0	 -3.2	 0.0	 0.0	 1	    1.00000	    0.00000	 63.0	 1	    1.06349	    0.93651;
	121	 1	 17.6	 3.9	 0.0	 0.0	 1	    1.00000	    0.00000	 63.0	 1	    1.07937	    0.92063;
	122	 2	 0.0	 0.0	 0.0	 0.0	 1	    1.01588	    0.00000	 63.0	 1	    1.07937	    0.95238;
	123	 1	 9.0	 2.6	 0.0	 0.0	 1	    1.01588	    0.00000	 63.0	 1	    1.07937	    0.95238;
	124	 1	 8.0	 -0.9	 0.0	 0.0	 1	    1.02222	    0.00000	 90.0	 1	    1.06667	    0.97778;
	125	 1	 10.5	 -0.5	 0.0	 0.0	 1	    1.01588	    0.00000	 63.0	 1	    1.07937	    0.95238;
	126	 1	 0.3	 -0.1	 0.0	 0.0	 1	    1.00000	    0.00000	 63.0	 1	    1.06349	    0.93651;
	127	 1	 7.8	 1.5	 0.0	 0.0	 1	    1.00000	    0.00000	 63.0	 1	    1.04762	    0.95238;
	128	 1	 11.8	 7.6	 0.0	 0.0	 1	    1.01587	    0.00000	 63.0	 1	    1.06349	    0.96825;
	129	 1	 16.7	 11.8	 0.0	 0.0	 1	    1.01587	    0.00000	 63.0	 1	    1.06349	    0.96825;
	130	 1	 0.0	 0.0	 0.0	 0.0	 1	    1.04666	    0.00000	 225.0	 1	    1.08444	    1.00889;
	131	 1	 103.0	 13.6	 0.0	 0.0	 1	    1.04666	    0.00000	 225.0	 1	    1.08444	    1.00889;
	132	 2	 11.5	 0.0	 0.0	 0.0	 1	    1.00000	    0.00000	 90.0	 1	    1.07778	    0.92222;
	133	 1	 2.1	 0.5	 0.0	 0.0	 1	    1.00000	    0.00000	 63.0	 1	    1.04762	    0.95238;
	134	 1	 83.5	 23.6	 0.0	 0.0	 1	    1.04666	    0.00000	 225.0	 1	    1.08889	    1.00444;
	135	 1	 0.0	 0.0	 0.0	 0.0	 1	    1.04666	    0.00000	 225.0	 1	    1.08889	    1.00444;
	136	 1	 21.9	 -0.2	 0.0	 0.0	 1	    1.02778	    0.00000	 90.0	 1	    1.07778	    0.97778;
	137	 2	 9.6	 -4.4	 0.0	 0.0	 1	    1.01587	    0.00000	 63.0	 1	    1.06349	    0.96825;
	138	 1	 0.0	 0.0	 0.0	 0.0	 1	    1.02333	    0.00000	 150.0	 1	    1.08000	    0.96667;
	139	 1	 15.7	 2.2	 0.0	 0.0	 1	    1.00000	    0.00000	 63.0	 1	    1.07937	    0.92063;
	140	 1	 0.0	 0.0	 0.0	 80.0	 1	    1.04445	    0.00000	 225.0	 1	    1.08889	    1.00000;
	141	 1	 0.0	 0.0	 0.0	 0.0	 1	    1.07895	    0.00000	 380.0	 1	    1.10526	    1.05263;
	142	 1	 14.8	 5.8	 0.0	 0.0	 1	    1.01588	    0.00000	 63.0	 1	    1.07937	    0.95238;
	143	 1	 0.0	 0.0	 0.0	 0.0	 1	    1.03778	    0.00000	 225.0	 1	    1.08889	    0.98667;
	144	 1	 23.3	 -10.3	 0.0	 0.0	 1	    1.03333	    0.00000	 90.0	 1	    1.11111	    0.95556;
	145	 1	 27.6	 5.9	 0.0	 0.0	 1	    1.02889	    0.00000	 225.0	 1	    1.08889	    0.96889;
	146	 1	 0.0	 0.0	 0.0	 0.0	 1	    1.05263	    0.00000	 380.0	 1	    1.10526	    1.00000;
	147	 1	 29.0	 5.5	 0.0	 0.0	 1	    1.00000	    0.00000	 63.0	 1	    1.06349	    0.93651;
	148	 1	 6.7	 2.4	 0.0	 0.0	 1	    1.00000	    0.00000	 63.0	 1	    1.06349	    0.93651;
	149	 1	 17.9	 6.1	 0.0	 0.0	 1	    1.02222	    0.00000	 90.0	 1	    1.06667	    0.97778;
	150	 1	 44.5	 6.4	 0.0	 0.0	 1	    1.00000	    0.00000	 63.0	 1	    1.06349	    0.93651;
	151	 1	 0.0	 0.0	 0.0	 0.0	 1	    1.01587	    0.00000	 63.0	 1	    1.06349	    0.96825;
	152	 1	 38.3	 8.8	 0.0	 7.7	 1	    1.01587	    0.00000	 63.0	 1	    1.06349	    0.96825;
	153	 1	 23.2	 -2.6	 0.0	 0.0	 1	    1.00000	    0.00000	 63.0	 1	    1.06349	    0.93651;
	154	 1	 0.0	 0.0	 0.0	 0.0	 1	    1.01111	    0.00000	 225.0	 1	    1.08889	    0.93333;
	155	 2	 0.0	 0.0	 0.0	 0.0	 1	    1.00000	    0.00000	 63.0	 1	    1.07937	    0.92063;
	156	 1	 0.0	 0.0	 0.0	 0.0	 1	    1.01587	    0.00000	 63.0	 1	    1.06349	    0.96825;
	157	 1	 0.3	 3.1	 0.0	 0.0	 1	    0.94444	    0.00000	 45.0	 1	    1.00000	    0.88889;
	158	 2	 0.0	 0.0	 0.0	 0.0	 1	    0.94444	    0.00000	 45.0	 1	    1.00000	    0.88889;
	159	 1	 0.0	 0.0	 0.0	 0.0	 1	    1.00000	    0.00000	 63.0	 1	    1.06349	    0.93651;
	160	 1	 35.2	 5.6	 0.0	 0.0	 1	    0.98889	    0.00000	 225.0	 1	    1.08889	    0.88889;
	161	 1	 38.2	 8.7	 0.0	 0.0	 1	    0.98889	    0.00000	 225.0	 1	    1.08889	    0.88889;
	162	 1	 0.7	 -1.4	 0.0	 0.0	 1	    1.02222	    0.00000	 90.0	 1	    1.06667	    0.97778;
	163	 1	 0.0	 0.0	 0.0	 0.0	 1	    1.01588	    0.00000	 63.0	 1	    1.07937	    0.95238;
	164	 1	 0.0	 0.0	 0.0	 0.0	 1	    1.01588	    0.00000	 63.0	 1	    1.07937	    0.95238;
	165	 1	 16.7	 9.2	 0.0	 0.0	 1	    0.97500	    0.00000	 20.0	 1	    1.15000	    0.80000;
	166	 1	 10.1	 2.4	 0.0	 0.0	 1	    1.02222	    0.00000	 90.0	 1	    1.06667	    0.97778;
	167	 1	 13.6	 0.6	 0.0	 0.0	 1	    1.02222	    0.00000	 90.0	 1	    1.06667	    0.97778;
	168	 1	 0.0	 0.0	 0.0	 0.0	 1	    1.04444	    0.00000	 225.0	 1	    1.08444	    1.00444;
	169	 1	 10.8	 -1.0	 0.0	 0.0	 1	    1.02222	    0.00000	 90.0	 1	    1.06667	    0.97778;
	170	 1	 70.4	 11.6	 0.0	 0.0	 1	    1.02778	    0.00000	 90.0	 1	    1.07778	    0.97778;
	171	 1	 26.5	 -0.4	 0.0	 0.0	 1	    1.02778	    0.00000	 90.0	 1	    1.07778	    0.97778;
	172	 1	 0.0	 0.0	 0.0	 0.0	 1	    1.04666	    0.00000	 225.0	 1	    1.08889	    1.00444;
	173	 1	 27.7	 8.5	 0.0	 0.0	 1	    1.01111	    0.00000	 90.0	 1	    1.08889	    0.93333;
	174	 1	 47.4	 4.6	 0.0	 0.0	 1	    1.03333	    0.00000	 90.0	 1	    1.11111	    0.95556;
	175	 1	 0.0	 0.0	 0.0	 0.0	 1	    1.00000	    0.00000	 63.0	 1	    1.07937	    0.92063;
	176	 1	 0.0	 0.0	 0.0	 0.0	 1	    1.00000	    0.00000	 63.0	 1	    1.07937	    0.92063;
	177	 2	 0.0	 0.0	 0.0	 0.0	 1	    1.00000	    0.00000	 150.0	 1	    1.10000	    0.90000;
	178	 1	 0.0	 0.0	 0.0	 0.0	 1	    1.04666	    0.00000	 225.0	 1	    1.08889	    1.00444;
	179	 1	 0.0	 0.0	 0.0	 0.0	 1	    1.04666	    0.00000	 225.0	 1	    1.08889	    1.00444;
	180	 1	 0.0	 0.0	 0.0	 -32.0	 1	    0.97500	    0.00000	 20.0	 1	    1.15000	    0.80000;
	181	 1	 0.0	 0.0	 0.0	 -32.0	 1	    0.97500	    0.00000	 20.0	 1	    1.15000	    0.80000;
	182	 1	 0.0	 0.0	 0.0	 0.0	 1	    1.00000	    0.00000	 63.0	 1	    1.04762	    0.95238;
	183	 1	 0.0	 0.0	 0.0	 0.0	 1	    1.04666	    0.00000	 225.0	 1	    1.08889	    1.00444;
	184	 1	 12.9	 -4.6	 0.0	 0.0	 1	    1.00000	    0.00000	 63.0	 1	    1.07937	    0.92063;
	185	 1	 16.0	 3.1	 0.0	 0.0	 1	    1.00000	    0.00000	 63.0	 1	    1.06349	    0.93651;
	186	 1	 4.8	 -0.4	 0.0	 0.0	 1	    1.01588	    0.00000	 63.0	 1	    1.07937	    0.95238;
	187	 1	 5.0	 1.4	 0.0	 0.0	 1	    1.02778	    0.00000	 90.0	 1	    1.07778	    0.97778;
	188	 1	 28.7	 4.0	 0.0	 0.0	 1	    1.01588	    0.00000	 63.0	 1	    1.07937	    0.95238;
	189	 1	 1.1	 0.3	 0.0	 0.0	 1	    1.02222	    0.00000	 90.0	 1	    1.06667	    0.97778;
	190	 2	 0.0	 0.0	 0.0	 0.0	 1	    1.00000	    0.00000	 63.0	 1	    1.07937	    0.92063;
	191	 1	 16.2	 1.6	 0.0	 0.0	 1	    1.00000	    0.00000	 63.0	 1	    1.07937	    0.92063;
	192	 2	 0.0	 0.0	 0.0	 0.0	 1	    0.94444	    0.00000	 45.0	 1	    1.00000	    0.88889;
	193	 1	 13.8	 -0.3	 0.0	 0.0	 1	    1.02222	    0.00000	 90.0	 1	    1.06667	    0.97778;
	194	 1	 7.4	 -1.5	 0.0	 0.0	 1	    1.00000	    0.00000	 63.0	 1	    1.07937	    0.92063;
	195	 1	 7.9	 4.8	 0.0	 0.0	 1	    1.04666	    0.00000	 225.0	 1	    1.08889	    1.00444;
	196	 2	 1.0	 -0.3	 0.0	 0.0	 1	    1.00000	    0.00000	 63.0	 1	    1.07937	    0.92063;
	197	 1	 0.0	 0.0	 0.0	 0.0	 1	    1.02538	    0.00000	 63.0	 1	    1.09837	    0.95238;
	198	 1	 0.0	 0.0	 0.0	 0.0	 1	    1.02538	    0.00000	 63.0	 1	    1.09837	    0.95238;
	199	 1	 24.4	 1.2	 0.0	 0.0	 1	    1.00000	    0.00000	 63.0	 1	    1.07937	    0.92063;
	200	 1	 9.3	 -2.7	 0.0	 0.0	 1	    1.00000	    0.00000	 63.0	 1	    1.07937	    0.92063;
...
];

%% generator data
%	bus	Pg	Qg	Qmax	Qmin	Vg	mBase	status	Pmax	Pmin
mpc.gen = [
	4	 0.0	 0.0	 0.0	 0.0	 1.0111115	 100.0	 0	 12.0	 0.0	0.8204	0.8230; % COW
	4	 0.0	 0.0	 0.0	 0.0	 1.0111115	 100.0	 0	 10.0	 0.0	0.5173	0.5177; % NG
	5	 4.55	 0.0	 0.0	 0.0	 1.0079355	 100.0	 1	 9.1	 0.0	0.5173	0.5177; % NG
	11	 0.0	 0.0	 0.0	 0.0	 1.000001	 100.0	 0	 28.0	 0.0	0.7001	0.7018; % PEL
	11	 0.0	 0.0	 0.0	 0.0	 1.000001	 100.0	 0	 18.0	 0.0	0.7001	0.7018; % PEL
	17	 4.1	 0.0	 0.0	 0.0	 1.022224	 100.0	 1	 8.2	 0.0	0.8204	0.8230; % COW
	19	 0.0	 0.0	 0.0	 0.0	 0.999999	 100.0	 0	 1.2	 0.0	0.7001	0.7018; % PEL
	22	 0.0	 0.0	 0.0	 0.0	 1.0158755	 100.0	 0	 10.0	 0.0	0.7001	0.7018; % PEL
	24	 0.0	 0.0	 0.0	 0.0	 1.033333	 100.0	 0	 16.1	 0.0	0.5173	0.5177; % NG
	24	 17.75	 0.0	 0.0	 0.0	 1.033333	 100.0	 1	 35.5	 0.0	0.7001	0.7018; % PEL
	25	 18.0	 0.0	 0.0	 0.0	 1.022222	 100.0	 1	 36.0	 0.0	0.7001	0.7018; % PEL
	25	 0.0	 0.0	 0.0	 0.0	 1.022222	 100.0	 0	 27.2	 0.0	0.5173	0.5177; % NG
	40	 0.0	 0.0	 0.0	 0.0	 1.027779	 100.0	 0	 8.0	 0.0	0.8204	0.8230; % COW
	47	 8.0	 0.0	 9.5	 -9.5	 0.999999	 100.0	 1	 16.0	 0.0	0.5173	0.5177; % NG
	47	 0.0	 -1.81	 9.5	 -9.5	 0.999999	 100.0	 0	 16.0	 0.0	0.5173	0.5177; % NG
	48	 11.5	 0.0	 0.0	 0.0	 1.000001	 100.0	 1	 23.0	 0.0	0.5173	0.5177; % NG
	48	 12.0	 0.0	 0.0	 0.0	 1.000001	 100.0	 1	 24.0	 0.0	0.8204	0.8230; % COW
	57	 6.5	 0.95	 1.0	 0.9	 1.0000025	 100.0	 1	 13.0	 0.0	0.5173	0.5177; % NG
	64	 0.0	 0.0	 0.0	 0.0	 0.9888895	 100.0	 0	 24.0	 0.0	0.7001	0.7018; % PEL
	64	 13.8	 0.0	 0.0	 0.0	 0.9888895	 100.0	 1	 27.6	 0.0	0.5173	0.5177; % NG
	69	 15.02	 0.0	 0.0	 0.0	 1.0079355	 100.0	 1	 30.04	 0.0	0.5173	0.5177; % NG
	70	 11.5	 0.0	 0.0	 0.0	 1.0158755	 100.0	 1	 23.0	 0.0	0.7001	0.7018; % PEL
	85	 0.0	 0.0	 0.0	 0.0	 0.999999	 100.0	 0	 6.68	 0.0	0.5173	0.5177; % NG
	86	 4.6	 0.0	 0.0	 0.0	 1.022224	 100.0	 1	 9.2	 0.0	0.5173	0.5177; % NG
	102	 23.0	 6.0	 21.0	 -9.0	 1.0158755	 100.0	 1	 46.0	 0.0	0.5173	0.5177; % NG
	122	 6.0	 1.5	 5.0	 -2.0	 1.0158755	 100.0	 1	 12.0	 0.0	0.8204	0.8230; % COW
	124	 4.5	 0.0	 0.0	 0.0	 1.022224	 100.0	 1	 9.0	 0.0	0.7001	0.7018; % PEL
	125	 13.0	 0.0	 0.0	 0.0	 1.0158755	 100.0	 1	 26.0	 0.0	0.5173	0.5177; % NG
	125	 6.0	 0.0	 0.0	 0.0	 1.0158755	 100.0	 1	 12.0	 0.0	0.7001	0.7018; % PEL
	132	 8.5	 0.0	 3.0	 -3.0	 1.000001	 100.0	 1	 17.0	 0.0	0.5173	0.5177; % NG
	132	 0.0	 1.0	 1.0	 -1.0	 1.000001	 100.0	 0	 4.0	 0.0	0.5173	0.5177; % NG
	132	 0.0	 1.99	 3.0	 -3.0	 1.000001	 100.0	 0	 14.0	 0.0	0.8204	0.8230; % COW
	132	 0.0	 1.99	 3.0	 -3.0	 1.000001	 100.0	 0	 14.0	 0.0	0.8204	0.8230; % COW
	137	 0.0	 -0.57	 0.8	 -0.8	 1.015872	 100.0	 0	 18.0	 0.0	0.5173	0.5177; % NG
	137	 9.0	 0.0	 0.8	 -0.8	 1.015872	 100.0	 1	 18.0	 0.0	0.7001	0.7018; % PEL
	155	 0.0	 -1.75	 1.76	 -1.76	 1.0000025	 100.0	 0	 5.3	 0.0	0.5173	0.5177; % NG
	158	 8.95	 -1.5	 10.0	 -13.0	 0.9444445	 100.0	 1	 17.9	 0.0	0.5173	0.5177; % NG
	158	 0.0	 -2.57	 10.0	 -13.0	 0.9444445	 100.0	 0	 17.9	 0.0	0.7001	0.7018; % PEL
	177	 0.0	 -1.56	 10.0	 -4.0	 1.0	 100.0	 0	 30.0	 0.0	0.5173	0.5177; % NG
	190	 0.0	 -1.41	 8.0	 -8.0	 1.0000025	 100.0	 0	 11.0	 0.0	0.7001	0.7018; % PEL
	190	 0.0	 -1.41	 2.0	 -2.0	 1.0000025	 100.0	 0	 11.0	 0.0	0.5173	0.5177; % NG
	192	 0.0	 -2.63	 14.0	 -14.0	 0.9444445	 100.0	 0	 30.0	 0.0	0.5173	0.5177; % NG
	194	 0.0	 0.0	 0.0	 0.0	 1.0000025	 100.0	 0	 23.5	 0.0	0.7001	0.7018; % PEL
	196	 7.5	 0.95	 1.0	 0.9	 1.0000025	 100.0	 1	 15.0	 0.0	0.5173	0.5177; % NG
	196	 7.5	 0.95	 1.0	 0.9	 1.0000025	 100.0	 1	 15.0	 0.0	0.7001	0.7018; % PEL
	219	 5.97	 0.0	 0.0	 0.0	 1.022224	 100.0	 1	 11.94	 0.0	0.7001	0.7018; % PEL
	226	 0.0	 0.0	 2.0	 0.0	 1.0	 100.0	 0	 6.0	 0.0	0.7001	0.7018; % PEL
	229	 3.75	 0.0	 0.0	 0.0	 1.0079355	 100.0	 1	 7.5	 0.0	0.5173	0.5177; % NG
	238	 16.75	 0.0	 0.0	 0.0	 1.000001	 100.0	 1	 33.5	 0.0	0.5173	0.5177; % NG
	238	 12.15	 0.0	 0.0	 0.0	 1.000001	 100.0	 1	 24.3	 0.0	0.7001	0.7018; % PEL
	240	 0.0	 0.0	 0.0	 0.0	 1.022224	 100.0	 0	 8.0	 0.0	0.5173	0.5177; % NG
	240	 18.0	 0.0	 0.0	 0.0	 1.022224	 100.0	 1	 36.0	 0.0	0.7001	0.7018; % PEL
	248	 0.0	 0.0	 2.0	 0.0	 0.999999	 100.0	 0	 1.0	 0.0	0.7001	0.7018; % PEL
	248	 0.0	 -2.77	 10.0	 -10.0	 0.999999	 100.0	 0	 31.0	 0.0	0.5173	0.5177; % NG
	248	 0.0	 -2.77	 10.0	 -10.0	 0.999999	 100.0	 0	 31.0	 0.0	0.5173	0.5177; % NG
	248	 0.0	 -2.77	 10.0	 -10.0	 0.999999	 100.0	 0	 31.0	 0.0	0.5173	0.5177; % NG
	258	 0.0	 -1.94	 10.0	 -10.0	 1.0000025	 100.0	 0	 26.0	 0.0	0.5173	0.5177; % NG
	258	 0.0	 0.23	 10.0	 -10.0	 1.0000025	 100.0	 0	 26.0	 0.0	0.5173	0.5177; % NG
	260	 15.0	 0.95	 1.0	 0.9	 1.000001	 100.0	 1	 30.0	 0.0	0.8204	0.8230; % COW
	263	 4.0	 0.0	 4.0	 -4.0	 1.0000025	 100.0	 1	 8.0	 0.0	0.8204	0.8230; % COW
	271	 0.0	 0.0	 0.0	 0.0	 1.0000025	 100.0	 0	 12.6	 0.0	0.7001	0.7018; % PEL
	284	 0.0	 -2.78	 6.1	 -6.2	 0.999999	 100.0	 0	 11.6	 0.0	0.5173	0.5177; % NG
	297	 0.0	 0.0	 0.0	 0.0	 0.9888895	 100.0	 0	 25.3	 0.0	0.5173	0.5177; % NG
	298	 0.0	 0.0	 0.0	 0.0	 1.0158755	 100.0	 0	 12.0	 0.0	0.5173	0.5177; % NG
	307	 7.5	 0.0	 9.0	 -9.0	 0.999999	 100.0	 1	 15.0	 0.0	0.5173	0.5177; % NG
	314	 12.9	 0.0	 0.0	 0.0	 1.000001	 100.0	 1	 25.8	 0.0	0.5173	0.5177; % NG
	314	 24.8	 0.0	 0.0	 0.0	 1.000001	 100.0	 1	 49.6	 0.0	0.5173	0.5177; % NG
	319	 0.0	 0.0	 0.0	 0.0	 1.0000025	 100.0	 0	 0.0	 -7.0	0.0000	0.0000; % SYNC
	319	 0.0	 0.0	 0.0	 0.0	 1.0000025	 100.0	 0	 0.0	 -7.0	0.0000	0.0000; % SYNC
	321	 5.4	 0.0	 0.1	 -0.1	 1.0000025	 100.0	 1	 10.8	 0.0	0.5173	0.5177; % NG
	327	 0.0	 -0.57	 4.0	 -4.0	 0.999999	 100.0	 0	 11.0	 0.0	0.5173	0.5177; % NG
	334	 0.0	 0.13	 13.0	 -9.0	 1.015872	 100.0	 0	 25.0	 0.0	0.7001	0.7018; % PEL
	335	 12.5	 2.0	 13.0	 -9.0	 1.0233335	 100.0	 1	 25.0	 0.0	0.8204	0.8230; % COW
	338	 6.5	 -0.5	 5.0	 -6.0	 1.0000025	 100.0	 1	 13.0	 0.0	0.5173	0.5177; % NG
	340	 0.0	 -1.82	 10.0	 -10.0	 1.0000025	 100.0	 0	 21.0	 0.0	0.5173	0.5177; % NG
	340	 0.0	 -0.1	 0.1	 -0.1	 1.0000025	 100.0	 0	 2.0	 0.0	0.7001	0.7018; % PEL
	347	 0.0	 0.0	 0.0	 0.0	 1.027779	 100.0	 0	 2.3	 0.0	0.7001	0.7018; % PEL
	347	 9.75	 0.0	 0.0	 0.0	 1.027779	 100.0	 1	 19.5	 0.0	0.7001	0.7018; % PEL
	350	 0.0	 0.0	 0.0	 0.0	 1.022222	 100.0	 0	 22.0	 0.0	0.7001	0.7018; % PEL
	358	 0.0	 1.84	 30.0	 -30.0	 1.0000025	 100.0	 0	 30.0	 0.0	0.5173	0.5177; % NG
	359	 6.0	 0.0	 0.0	 0.0	 1.0158755	 100.0	 1	 12.0	 0.0	0.8204	0.8230; % COW
	359	 6.0	 0.0	 0.0	 0.0	 1.0158755	 100.0	 1	 12.0	 0.0	0.5173	0.5177; % NG
	366	 65.0	 16.5	 59.0	 -26.0	 1.046665	 100.0	 1	 130.0	 0.0	0.8204	0.8230; % COW
	393	 0.0	 0.0	 0.0	 0.0	 1.0000025	 100.0	 0	 2.7	 0.0	0.7001	0.7018; % PEL
	412	 5.0	 0.0	 0.0	 0.0	 1.022224	 100.0	 1	 10.0	 0.0	0.5173	0.5177; % NG
	412	 5.75	 0.0	 0.0	 0.0	 1.022224	 100.0	 1	 11.5	 0.0	0.7001	0.7018; % PEL
	432	 0.0	 0.0	 0.0	 0.0	 1.0000025	 100.0	 0	 12.0	 0.0	0.5173	0.5177; % NG
	441	 0.0	 1.33	 10.96	 -11.99	 1.0000025	 100.0	 0	 34.25	 0.0	0.5173	0.5177; % NG
	448	 0.0	 0.71	 8.0	 -9.0	 1.015872	 100.0	 0	 25.0	 0.0	0.8204	0.8230; % COW
	463	 0.0	 0.0	 0.0	 0.0	 1.0079355	 100.0	 0	 2.4	 0.0	0.7001	0.7018; % PEL
	463	 8.0	 0.0	 0.0	 0.0	 1.0079355	 100.0	 1	 16.0	 0.0	0.5173	0.5177; % NG
	465	 14.0	 1.5	 6.0	 -3.0	 0.985555	 100.0	 1	 27.0	 1.0	0.5173	0.5177; % NG
	465	 14.0	 1.5	 6.0	 -3.0	 0.985555	 100.0	 1	 27.0	 1.0	0.5173	0.5177; % NG
	467	 24.5	 4.5	 19.0	 -10.0	 1.0079355	 100.0	 1	 48.0	 1.0	0.5173	0.5177; % NG
	471	 0.0	 -2.86	 6.0	 -6.0	 0.999999	 100.0	 0	 10.0	 0.0	0.7001	0.7018; % PEL
	471	 0.0	 -5.4	 5.4	 -5.4	 0.999999	 100.0	 0	 9.0	 0.0	0.5173	0.5177; % NG
	480	 0.0	 -2.66	 17.0	 -16.0	 0.999999	 100.0	 0	 27.0	 0.0	0.7001	0.7018; % PEL
	480	 0.0	 -2.66	 17.0	 -16.0	 0.999999	 100.0	 0	 27.0	 0.0	0.7001	0.7018; % PEL
	480	 0.0	 -2.66	 17.0	 -16.0	 0.999999	 100.0	 0	 27.0	 0.0	0.5173	0.5177; % NG
	492	 0.0	 -0.74	 8.0	 -17.0	 1.033334	 100.0	 0	 23.4	 0.0	0.7001	0.7018; % PEL
	509	 0.0	 0.34	 2.0	 -2.0	 0.999999	 100.0	 0	 4.0	 0.0	0.7001	0.7018; % PEL
	518	 0.0	 0.0	 0.0	 0.0	 1.015874	 100.0	 0	 10.0	 0.0	0.7001	0.7018; % PEL
	519	 6.0	 0.0	 0.0	 0.0	 1.022224	 100.0	 1	 12.0	 0.0	0.8204	0.8230; % COW
	529	 0.0	 -1.62	 4.8	 -4.8	 0.999999	 100.0	 0	 8.0	 0.0	0.7001	0.7018; % PEL
	529	 0.0	 -1.62	 4.8	 -4.8	 0.999999	 100.0	 0	 8.0	 0.0	0.8204	0.8230; % COW
	529	 4.0	 0.0	 4.8	 -4.8	 0.999999	 100.0	 1	 8.0	 0.0	0.8204	0.8230; % COW
	535	 6.0	 0.0	 0.0	 0.0	 1.022224	 100.0	 1	 12.0	 0.0	0.5173	0.5177; % NG
	535	 12.0	 0.0	 0.0	 0.0	 1.022224	 100.0	 1	 24.0	 0.0	0.7001	0.7018; % PEL
	544	 4.5	 1.95	 2.0	 1.9	 1.0000025	 100.0	 1	 9.0	 0.0	0.8204	0.8230; % COW
	547	 0.0	 0.0	 2.0	 0.0	 1.0000025	 100.0	 0	 12.0	 0.0	0.5173	0.5177; % NG
	569	 6.0	 0.0	 0.0	 0.0	 1.0158755	 100.0	 1	 12.0	 0.0	0.7001	0.7018; % PEL
	569	 15.0	 0.0	 0.0	 0.0	 1.0158755	 100.0	 1	 30.0	 0.0	0.5173	0.5177; % NG
	569	 5.75	 0.0	 0.0	 0.0	 1.0158755	 100.0	 1	 11.5	 0.0	0.5173	0.5177; % NG
	582	 8.0	 1.5	 7.0	 -4.0	 1.0000005	 100.0	 1	 16.0	 0.0	0.5173	0.5177; % NG
	584	 4.5	 0.0	 0.0	 0.0	 1.0158755	 100.0	 1	 9.0	 0.0	0.5173	0.5177; % NG
	585	 4.75	 0.0	 5.7	 -5.7	 0.999999	 100.0	 1	 9.5	 0.0	0.5173	0.5177; % NG
	588	 0.0	 0.1	 0.1	 -0.1	 1.000001	 100.0	 0	 1.0	 0.0	0.7001	0.7018; % PEL
	592	 0.0	 0.82	 10.0	 -10.0	 1.0000025	 100.0	 0	 21.0	 0.0	0.5173	0.5177; % NG
	599	 0.0	 0.03	 1.0	 -1.0	 1.015872	 100.0	 0	 6.1	 0.0	0.5173	0.5177; % NG
	609	 22.5	 0.0	 45.0	 -45.0	 0.975	 100.0	 1	 45.0	 0.0	0.7001	0.7018; % PEL
	609	 0.0	 -1.04	 45.0	 -45.0	 0.975	 100.0	 0	 45.0	 0.0	0.5173	0.5177; % NG
	611	 6.0	 0.0	 0.0	 0.0	 1.022224	 100.0	 1	 12.0	 0.0	0.5173	0.5177; % NG
	611	 6.0	 0.0	 0.0	 0.0	 1.022224	 100.0	 1	 12.0	 0.0	0.8204	0.8230; % COW
	611	 6.0	 0.0	 0.0	 0.0	 1.022224	 100.0	 1	 12.0	 0.0	0.5173	0.5177; % NG
	612	 17.5	 0.0	 0.0	 0.0	 1.0000005	 100.0	 1	 35.0	 0.0	0.5173	0.5177; % NG
	612	 0.0	 0.0	 0.0	 0.0	 1.0000005	 100.0	 0	 11.5	 0.0	0.5173	0.5177; % NG
	623	 0.0	 0.0	 8.3	 -8.3	 1.0111115	 100.0	 1	 8.3	 -8.3	0.8204	0.8230; % COW
	632	 0.0	 2.76	 4.0	 -4.0	 0.999999	 100.0	 0	 7.3	 0.0	0.5173	0.5177; % NG
	635	 0.0	 0.91	 7.0	 0.0	 1.015872	 100.0	 0	 15.0	 0.0	0.5173	0.5177; % NG
	635	 7.5	 3.5	 7.0	 0.0	 1.015872	 100.0	 1	 15.0	 0.0	0.7001	0.7018; % PEL
	640	 119.5	 -11.4	 80.0	 -102.8	 1.078945	 100.0	 1	 239.0	 0.0	0.5173	0.5177; % NG
	651	 0.0	 1.38	 7.0	 0.0	 1.0000025	 100.0	 0	 7.0	 0.0	0.5173	0.5177; % NG
	669	 6.0	 0.0	 0.0	 0.0	 1.022224	 100.0	 1	 12.0	 0.0	0.5173	0.5177; % NG
	669	 6.0	 0.0	 0.0	 0.0	 1.022224	 100.0	 1	 12.0	 0.0	0.5173	0.5177; % NG
	670	 3.75	 0.0	 0.0	 0.0	 1.027779	 100.0	 1	 7.5	 0.0	0.5173	0.5177; % NG
	670	 12.0	 0.0	 0.0	 0.0	 1.027779	 100.0	 1	 24.0	 0.0	0.5173	0.5177; % NG
	678	 0.0	 0.0	 0.0	 0.0	 1.022224	 100.0	 0	 6.6	 0.0	0.7001	0.7018; % PEL
	679	 6.0	 0.0	 0.0	 0.0	 1.022224	 100.0	 1	 12.0	 0.0	0.5173	0.5177; % NG
	683	 4.5	 0.5	 6.0	 -5.0	 0.9444445	 100.0	 1	 9.0	 0.0	0.5173	0.5177; % NG
	683	 4.5	 0.5	 6.0	 -5.0	 0.9444445	 100.0	 1	 9.0	 0.0	0.5173	0.5177; % NG
	683	 0.0	 -2.58	 8.0	 -5.0	 0.9444445	 100.0	 0	 11.0	 0.0	0.8204	0.8230; % COW
	683	 5.5	 1.5	 8.0	 -5.0	 0.9444445	 100.0	 1	 11.0	 0.0	0.5173	0.5177; % NG
	694	 16.175	 0.0	 0.0	 0.0	 1.022222	 100.0	 1	 32.35	 0.0	0.5173	0.5177; % NG
	694	 6.0	 0.0	 0.0	 0.0	 1.022222	 100.0	 1	 12.0	 0.0	0.7001	0.7018; % PEL
	694	 10.5	 0.0	 0.0	 0.0	 1.022222	 100.0	 1	 21.0	 0.0	0.5173	0.5177; % NG
	698	 18.5	 -1.0	 15.0	 -17.0	 0.975	 100.0	 1	 37.0	 0.0	0.7001	0.7018; % PEL
	698	 18.5	 -1.0	 15.0	 -17.0	 0.975	 100.0	 1	 37.0	 0.0	0.5173	0.5177; % NG
	697	 18.5	 0.0	 15.0	 -15.0	 0.975	 100.0	 1	 37.0	 0.0	0.5173	0.5177; % NG
	697	 18.5	 0.0	 15.0	 -15.0	 0.975	 100.0	 1	 37.0	 0.0	0.7001	0.7018; % PEL
	696	 18.5	 -1.0	 15.0	 -17.0	 0.975	 100.0	 1	 37.0	 0.0	0.7001	0.7018; % PEL
	696	 18.5	 -1.0	 15.0	 -17.0	 0.975	 100.0	 1	 37.0	 0.0	0.5173	0.5177; % NG
	704	 2.0	 0.0	 2.0	 -2.0	 0.9444445	 100.0	 1	 4.0	 0.0	0.7001	0.7018; % PEL
	704	 2.0	 0.0	 2.5	 -2.5	 0.9444445	 100.0	 1	 4.0	 0.0	0.5173	0.5177; % NG
	704	 2.85	 0.0	 3.0	 -3.0	 0.9444445	 100.0	 1	 5.7	 0.0	0.5173	0.5177; % NG
	704	 0.0	 -2.66	 6.0	 -5.0	 0.9444445	 100.0	 0	 8.5	 0.0	0.8204	0.8230; % COW
	731	 9.75	 0.0	 0.0	 0.0	 1.022224	 100.0	 1	 19.5	 0.0	0.5173	0.5177; % NG
	732	 19.5	 0.0	 18.0	 -18.0	 0.999999	 100.0	 1	 39.0	 0.0	0.5173	0.5177; % NG
	733	 5.75	 0.0	 0.0	 0.0	 1.0158755	 100.0	 1	 11.5	 0.0	0.5173	0.5177; % NG
	733	 16.0	 0.0	 0.0	 0.0	 1.0158755	 100.0	 1	 32.0	 0.0	0.7001	0.7018; % PEL
	735	 0.0	 0.0	 0.0	 0.0	 1.000001	 100.0	 0	 12.0	 0.0	0.5173	0.5177; % NG
	735	 16.0	 0.0	 0.0	 0.0	 1.000001	 100.0	 1	 32.0	 0.0	0.5173	0.5177; % NG
	736	 2.5	 0.0	 0.1	 -0.1	 1.0000025	 100.0	 1	 5.0	 0.0	0.5173	0.5177; % NG
	743	 3.35	 0.01	 3.72	 -3.7	 0.999999	 100.0	 1	 6.7	 0.0	0.5173	0.5177; % NG
	743	 2.8	 0.0	 3.0	 -3.0	 0.999999	 100.0	 1	 5.6	 0.0	0.5173	0.5177; % NG
	744	 13.3	 -2.38	 15.0	 -19.76	 0.999999	 100.0	 1	 26.6	 0.0	0.5173	0.5177; % NG
	745	 4.0	 0.0	 2.0	 -2.0	 1.022224	 100.0	 1	 7.0	 1.0	0.5173	0.5177; % NG
	750	 0.0	 -2.78	 3.0	 -3.0	 0.999999	 100.0	 0	 5.0	 -5.0	0.5173	0.5177; % NG
	757	 0.0	 1.81	 8.0	 -8.0	 0.9888895	 100.0	 0	 23.5	 0.0	0.7001	0.7018; % PEL
	759	 0.0	 0.0	 0.0	 0.0	 0.999999	 100.0	 0	 6.0	 0.0	0.7001	0.7018; % PEL
	760	 0.0	 0.0	 0.0	 0.0	 0.999999	 100.0	 0	 6.0	 0.0	0.7001	0.7018; % PEL
	759	 18.75	 2.0	 10.0	 -6.0	 0.999999	 100.0	 1	 37.5	 0.0	0.5173	0.5177; % NG
	760	 18.75	 2.0	 10.0	 -6.0	 0.999999	 100.0	 1	 37.5	 0.0	0.5173	0.5177; % NG
	761	 0.0	 0.06	 0.06	 -0.06	 0.825	 100.0	 0	 0.6	 0.0	0.7001	0.7018; % PEL
	761	 13.05	 0.0	 2.61	 -2.61	 0.825	 100.0	 1	 26.1	 0.0	0.5173	0.5177; % NG
	761	 0.0	 0.16	 0.16	 -0.16	 0.825	 100.0	 0	 1.6	 0.0	0.7001	0.7018; % PEL
	761	 0.0	 0.11	 0.11	 -0.11	 0.825	 100.0	 0	 1.1	 0.0	0.7001	0.7018; % PEL
	765	 0.0	 0.0	 0.0	 0.0	 1.0158755	 100.0	 0	 37.5	 0.0	0.7001	0.7018; % PEL
	765	 17.0	 0.0	 0.0	 0.0	 1.0158755	 100.0	 1	 34.0	 0.0	0.5173	0.5177; % NG
	785	 0.0	 -0.29	 26.0	 -26.0	 0.975	 100.0	 0	 8.0	 0.0	0.5173	0.5177; % NG
	785	 0.0	 -0.29	 26.0	 -26.0	 0.975	 100.0	 0	 15.0	 0.0	0.8204	0.8230; % COW
	786	 0.0	 -0.33	 26.0	 -26.0	 0.975	 100.0	 0	 19.0	 0.0	0.7001	0.7018; % PEL
	800	 15.5	 -1.0	 15.0	 -17.0	 0.975	 100.0	 1	 31.0	 0.0	0.5173	0.5177; % NG
	800	 15.5	 -1.0	 15.0	 -17.0	 0.975	 100.0	 1	 31.0	 0.0	0.5173	0.5177; % NG
	801	 15.5	 -1.0	 15.0	 -17.0	 0.975	 100.0	 1	 31.0	 0.0	0.5173	0.5177; % NG
	801	 15.5	 -1.0	 15.0	 -17.0	 0.975	 100.0	 1	 31.0	 0.0	0.5173	0.5177; % NG
	802	 15.5	 -1.0	 15.0	 -17.0	 0.975	 100.0	 1	 31.0	 0.0	0.7001	0.7018; % PEL
	802	 15.5	 -1.0	 15.0	 -17.0	 0.975	 100.0	 1	 31.0	 0.0	0.5173	0.5177; % NG
	806	 20.4	 0.0	 0.0	 0.0	 1.0000025	 100.0	 1	 40.8	 0.0	0.5173	0.5177; % NG
	814	 16.5	 -1.5	 6.0	 -9.0	 1.015872	 100.0	 1	 32.0	 1.0	0.7001	0.7018; % PEL
	814	 0.0	 0.0	 6.0	 -9.0	 1.015872	 100.0	 0	 32.0	 1.0	0.7001	0.7018; % PEL
	815	 16.5	 -1.5	 6.0	 -9.0	 1.015872	 100.0	 1	 32.0	 1.0	0.5173	0.5177; % NG
	815	 16.5	 -1.5	 6.0	 -9.0	 1.015872	 100.0	 1	 32.0	 1.0	0.5173	0.5177; % NG
	815	 16.5	 -1.5	 6.0	 -9.0	 1.015872	 100.0	 1	 32.0	 1.0	0.5173	0.5177; % NG
	815	 16.5	 -1.5	 6.0	 -9.0	 1.015872	 100.0	 1	 32.0	 1.0	0.8204	0.8230; % COW
	825	 0.0	 1.35	 3.0	 -3.0	 1.0000025	 100.0	 0	 13.0	 0.0	0.5173	0.5177; % NG
	825	 3.5	 0.0	 3.0	 -3.0	 1.0000025	 100.0	 1	 7.0	 0.0	0.5173	0.5177; % NG
	828	 0.0	 0.0	 0.0	 0.0	 1.022222	 100.0	 0	 2.4	 0.0	0.7001	0.7018; % PEL
	829	 13.5	 0.0	 10.0	 -10.0	 1.0000025	 100.0	 1	 27.0	 0.0	0.5173	0.5177; % NG
	830	 0.0	 -2.71	 10.0	 -10.0	 0.9444445	 100.0	 0	 20.0	 0.0	0.8204	0.8230; % COW
	832	 0.0	 1.34	 3.14	 -3.43	 1.0000025	 100.0	 0	 9.8	 0.0	0.5173	0.5177; % NG
...
];

%% generator cost data
%	2	startup	shutdown	n	c(n-1)	...	c0
mpc.gencost = [
	2	 0.0	 0.0	 3	   0.000000	  34.719101	   0.000000; % COW
	2	 0.0	 0.0	 3	   0.000000	  27.265118	   0.000000; % NG
	2	 0.0	 0.0	 3	   0.000000	  44.019985	   0.000000; % NG
	2	 0.0	 0.0	 3	   0.000000	 125.857376	   0.000000; % PEL
	2	 0.0	 0.0	 3	   0.000000	 112.274748	   0.000000; % PEL
	2	 0.0	 0.0	 3	   0.000000	  16.070751	   0.000000; % COW
	2	 0.0	 0.0	 3	   0.000000	 119.380030	   0.000000; % PEL
	2	 0.0	 0.0	 3	   0.000000	  97.079386	   0.000000; % PEL
	2	 0.0	 0.0	 3	   0.000000	  34.189962	   0.000000; % NG
	2	 0.0	 0.0	 3	   0.000000	 123.259097	   0.000000; % PEL
	2	 0.0	 0.0	 3	   0.000000	 100.532072	   0.000000; % PEL
	2	 0.0	 0.0	 3	   0.000000	  33.396400	   0.000000; % NG
	2	 0.0	 0.0	 3	   0.000000	  18.678889	   0.000000; % COW
	2	 0.0	 0.0	 3	   0.000000	  54.908293	   0.000000; % NG
	2	 0.0	 0.0	 3	   0.000000	  42.955047	   0.000000; % NG
	2	 0.0	 0.0	 3	   0.000000	  22.606677	   0.000000; % NG
	2	 0.0	 0.0	 3	   0.000000	  31.523451	   0.000000; % COW
	2	 0.0	 0.0	 3	   0.000000	  39.638733	   0.000000; % NG
	2	 0.0	 0.0	 3	   0.000000	 117.834409	   0.000000; % PEL
	2	 0.0	 0.0	 3	   0.000000	  20.083247	   0.000000; % NG
	2	 0.0	 0.0	 3	   0.000000	  38.792247	   0.000000; % NG
	2	 0.0	 0.0	 3	   0.000000	 100.515196	   0.000000; % PEL
	2	 0.0	 0.0	 3	   0.000000	  23.151628	   0.000000; % NG
	2	 0.0	 0.0	 3	   0.000000	  29.074090	   0.000000; % NG
	2	 0.0	 0.0	 3	   0.000000	  24.793597	   0.000000; % NG
	2	 0.0	 0.0	 3	   0.000000	  27.357020	   0.000000; % COW
	2	 0.0	 0.0	 3	   0.000000	 109.277329	   0.000000; % PEL
	2	 0.0	 0.0	 3	   0.000000	  48.491471	   0.000000; % NG
	2	 0.0	 0.0	 3	   0.000000	 115.919519	   0.000000; % PEL
	2	 0.0	 0.0	 3	   0.000000	  35.940816	   0.000000; % NG
	2	 0.0	 0.0	 3	   0.000000	  17.055135	   0.000000; % NG
	2	 0.0	 0.0	 3	   0.000000	  17.788534	   0.000000; % COW
	2	 0.0	 0.0	 3	   0.000000	  25.292879	   0.000000; % COW
	2	 0.0	 0.0	 3	   0.000000	  53.056287	   0.000000; % NG
	2	 0.0	 0.0	 3	   0.000000	 117.368659	   0.000000; % PEL
	2	 0.0	 0.0	 3	   0.000000	  37.412142	   0.000000; % NG
	2	 0.0	 0.0	 3	   0.000000	  18.017630	   0.000000; % NG
	2	 0.0	 0.0	 3	   0.000000	  85.173223	   0.000000; % PEL
	2	 0.0	 0.0	 3	   0.000000	  38.124945	   0.000000; % NG
	2	 0.0	 0.0	 3	   0.000000	 121.165706	   0.000000; % PEL
	2	 0.0	 0.0	 3	   0.000000	  31.841243	   0.000000; % NG
	2	 0.0	 0.0	 3	   0.000000	  31.416093	   0.000000; % NG
	2	 0.0	 0.0	 3	   0.000000	  89.218155	   0.000000; % PEL
	2	 0.0	 0.0	 3	   0.000000	  40.960757	   0.000000; % NG
	2	 0.0	 0.0	 3	   0.000000	 119.606964	   0.000000; % PEL
	2	 0.0	 0.0	 3	   0.000000	 118.028872	   0.000000; % PEL
	2	 0.0	 0.0	 3	   0.000000	 128.292721	   0.000000; % PEL
	2	 0.0	 0.0	 3	   0.000000	  24.252739	   0.000000; % NG
	2	 0.0	 0.0	 3	   0.000000	  26.604131	   0.000000; % NG
	2	 0.0	 0.0	 3	   0.000000	 112.053547	   0.000000; % PEL
	2	 0.0	 0.0	 3	   0.000000	  28.695640	   0.000000; % NG
	2	 0.0	 0.0	 3	   0.000000	 110.917974	   0.000000; % PEL
	2	 0.0	 0.0	 3	   0.000000	  98.578795	   0.000000; % PEL
	2	 0.0	 0.0	 3	   0.000000	  34.549157	   0.000000; % NG
	2	 0.0	 0.0	 3	   0.000000	  24.612219	   0.000000; % NG
	2	 0.0	 0.0	 3	   0.000000	  61.443741	   0.000000; % NG
	2	 0.0	 0.0	 3	   0.000000	  44.179175	   0.000000; % NG
	2	 0.0	 0.0	 3	   0.000000	  36.208485	   0.000000; % NG
	2	 0.0	 0.0	 3	   0.000000	   1.662592	   0.000000; % COW
	2	 0.0	 0.0	 3	   0.000000	  23.923511	   0.000000; % COW
	2	 0.0	 0.0	 3	   0.000000	 126.105536	   0.000000; % PEL
	2	 0.0	 0.0	 3	   0.000000	  44.572834	   0.000000; % NG
	2	 0.0	 0.0	 3	   0.000000	  14.215485	   0.000000; % NG
	2	 0.0	 0.0	 3	   0.000000	  29.060489	   0.000000; % NG
	2	 0.0	 0.0	 3	   0.000000	  38.353876	   0.000000; % NG
	2	 0.0	 0.0	 3	   0.000000	  34.437419	   0.000000; % NG
	2	 0.0	 0.0	 3	   0.000000	  38.404293	   0.000000; % NG
	2	 0.0	 0.0	 3	   0.000000	   0.000000	   0.000000; % SYNC
	2	 0.0	 0.0	 3	   0.000000	   0.000000	   0.000000; % SYNC
	2	 0.0	 0.0	 3	   0.000000	  37.769362	   0.000000; % NG
	2	 0.0	 0.0	 3	   0.000000	  33.537122	   0.000000; % NG
	2	 0.0	 0.0	 3	   0.000000	 111.286591	   0.000000; % PEL
	2	 0.0	 0.0	 3	   0.000000	  23.822099	   0.000000; % COW
	2	 0.0	 0.0	 3	   0.000000	  24.186204	   0.000000; % NG
	2	 0.0	 0.0	 3	   0.000000	  19.176649	   0.000000; % NG
	2	 0.0	 0.0	 3	   0.000000	 122.465506	   0.000000; % PEL
	2	 0.0	 0.0	 3	   0.000000	 106.703695	   0.000000; % PEL
	2	 0.0	 0.0	 3	   0.000000	 107.728291	   0.000000; % PEL
	2	 0.0	 0.0	 3	   0.000000	 115.467444	   0.000000; % PEL
	2	 0.0	 0.0	 3	   0.000000	  32.860206	   0.000000; % NG
	2	 0.0	 0.0	 3	   0.000000	  24.435021	   0.000000; % COW
	2	 0.0	 0.0	 3	   0.000000	  23.746964	   0.000000; % NG
	2	 0.0	 0.0	 3	   0.000000	  13.628857	   0.000000; % COW
	2	 0.0	 0.0	 3	   0.000000	 116.967755	   0.000000; % PEL
	2	 0.0	 0.0	 3	   0.000000	  18.652095	   0.000000; % NG
	2	 0.0	 0.0	 3	   0.000000	 111.581812	   0.000000; % PEL
	2	 0.0	 0.0	 3	   0.000000	  35.235955	   0.000000; % NG
	2	 0.0	 0.0	 3	   0.000000	  31.468556	   0.000000; % NG
	2	 0.0	 0.0	 3	   0.000000	  17.794314	   0.000000; % COW
	2	 0.0	 0.0	 3	   0.000000	 105.683734	   0.000000; % PEL
	2	 0.0	 0.0	 3	   0.000000	  48.255781	   0.000000; % NG
	2	 0.0	 0.0	 3	   0.000000	  53.838414	   0.000000; % NG
	2	 0.0	 0.0	 3	   0.000000	  37.254685	   0.000000; % NG
	2	 0.0	 0.0	 3	   0.000000	  35.434555	   0.000000; % NG
	2	 0.0	 0.0	 3	   0.000000	  98.508658	   0.000000; % PEL
	2	 0.0	 0.0	 3	   0.000000	  39.539658	   0.000000; % NG
	2	 0.0	 0.0	 3	   0.000000	 101.377381	   0.000000; % PEL
	2	 0.0	 0.0	 3	   0.000000	 130.391311	   0.000000; % PEL
	2	 0.0	 0.0	 3	   0.000000	  38.239645	   0.000000; % NG
	2	 0.0	 0.0	 3	   0.000000	 107.473273	   0.000000; % PEL
	2	 0.0	 0.0	 3	   0.000000	 107.604090	   0.000000; % PEL
	2	 0.0	 0.0	 3	   0.000000	 106.271036	   0.000000; % PEL
	2	 0.0	 0.0	 3	   0.000000	  19.429866	   0.000000; % COW
	2	 0.0	 0.0	 3	   0.000000	  94.368814	   0.000000; % PEL
	2	 0.0	 0.0	 3	   0.000000	  16.652288	   0.000000; % COW
	2	 0.0	 0.0	 3	   0.000000	  24.600913	   0.000000; % COW
	2	 0.0	 0.0	 3	   0.000000	  32.654925	   0.000000; % NG
	2	 0.0	 0.0	 3	   0.000000	 117.129387	   0.000000; % PEL
	2	 0.0	 0.0	 3	   0.000000	  41.531880	   0.000000; % COW
	2	 0.0	 0.0	 3	   0.000000	  23.021147	   0.000000; % NG
	2	 0.0	 0.0	 3	   0.000000	 118.716028	   0.000000; % PEL
	2	 0.0	 0.0	 3	   0.000000	  38.794253	   0.000000; % NG
	2	 0.0	 0.0	 3	   0.000000	  22.764542	   0.000000; % NG
	2	 0.0	 0.0	 3	   0.000000	  46.058639	   0.000000; % NG
	2	 0.0	 0.0	 3	   0.000000	  47.141387	   0.000000; % NG
	2	 0.0	 0.0	 3	   0.000000	  34.299414	   0.000000; % NG
	2	 0.0	 0.0	 3	   0.000000	 122.796127	   0.000000; % PEL
	2	 0.0	 0.0	 3	   0.000000	  28.249014	   0.000000; % NG
	2	 0.0	 0.0	 3	   0.000000	  37.079776	   0.000000; % NG
	2	 0.0	 0.0	 3	   0.000000	 105.250372	   0.000000; % PEL
	2	 0.0	 0.0	 3	   0.000000	  37.195589	   0.000000; % NG
	2	 0.0	 0.0	 3	   0.000000	  46.853672	   0.000000; % NG
	2	 0.0	 0.0	 3	   0.000000	  19.301367	   0.000000; % COW
	2	 0.0	 0.0	 3	   0.000000	  56.566140	   0.000000; % NG
	2	 0.0	 0.0	 3	   0.000000	  36.436204	   0.000000; % NG
	2	 0.0	 0.0	 3	   0.000000	  25.587332	   0.000000; % NG
	2	 0.0	 0.0	 3	   0.000000	  17.976528	   0.000000; % COW
	2	 0.0	 0.0	 3	   0.000000	  22.670915	   0.000000; % NG
	2	 0.0	 0.0	 3	   0.000000	   6.815549	   0.000000; % NG
	2	 0.0	 0.0	 3	   0.000000	  99.511273	   0.000000; % PEL
	2	 0.0	 0.0	 3	   0.000000	  39.593521	   0.000000; % NG
	2	 0.0	 0.0	 3	   0.000000	  50.720267	   0.000000; % NG
	2	 0.0	 0.0	 3	   0.000000	  48.945291	   0.000000; % NG
	2	 0.0	 0.0	 3	   0.000000	  20.737080	   0.000000; % NG
	2	 0.0	 0.0	 3	   0.000000	  40.340923	   0.000000; % NG
	2	 0.0	 0.0	 3	   0.000000	  42.906874	   0.000000; % NG
	2	 0.0	 0.0	 3	   0.000000	 124.031387	   0.000000; % PEL
	2	 0.0	 0.0	 3	   0.000000	  24.544045	   0.000000; % NG
	2	 0.0	 0.0	 3	   0.000000	  33.300055	   0.000000; % NG
	2	 0.0	 0.0	 3	   0.000000	  33.258305	   0.000000; % NG
	2	 0.0	 0.0	 3	   0.000000	  30.190997	   0.000000; % COW
	2	 0.0	 0.0	 3	   0.000000	  24.450705	   0.000000; % NG
	2	 0.0	 0.0	 3	   0.000000	  29.794383	   0.000000; % NG
	2	 0.0	 0.0	 3	   0.000000	 119.788062	   0.000000; % PEL
	2	 0.0	 0.0	 3	   0.000000	  47.330962	   0.000000; % NG
	2	 0.0	 0.0	 3	   0.000000	 122.055981	   0.000000; % PEL
	2	 0.0	 0.0	 3	   0.000000	  25.547072	   0.000000; % NG
	2	 0.0	 0.0	 3	   0.000000	  54.728876	   0.000000; % NG
	2	 0.0	 0.0	 3	   0.000000	 127.485755	   0.000000; % PEL
	2	 0.0	 0.0	 3	   0.000000	 112.084227	   0.000000; % PEL
	2	 0.0	 0.0	 3	   0.000000	  36.313139	   0.000000; % NG
	2	 0.0	 0.0	 3	   0.000000	 104.210828	   0.000000; % PEL
	2	 0.0	 0.0	 3	   0.000000	  44.604391	   0.000000; % NG
	2	 0.0	 0.0	 3	   0.000000	  31.444437	   0.000000; % NG
	2	 0.0	 0.0	 3	   0.000000	   5.771394	   0.000000; % COW
	2	 0.0	 0.0	 3	   0.000000	  28.216057	   0.000000; % NG
	2	 0.0	 0.0	 3	   0.000000	  48.033731	   0.000000; % NG
	2	 0.0	 0.0	 3	   0.000000	  28.216850	   0.000000; % NG
	2	 0.0	 0.0	 3	   0.000000	 117.390466	   0.000000; % PEL
	2	 0.0	 0.0	 3	   0.000000	  21.537687	   0.000000; % NG
	2	 0.0	 0.0	 3	   0.000000	  32.394466	   0.000000; % NG
	2	 0.0	 0.0	 3	   0.000000	  50.218830	   0.000000; % NG
	2	 0.0	 0.0	 3	   0.000000	  36.842194	   0.000000; % NG
	2	 0.0	 0.0	 3	   0.000000	  44.058422	   0.000000; % NG
	2	 0.0	 0.0	 3	   0.000000	  40.551368	   0.000000; % NG
	2	 0.0	 0.0	 3	   0.000000	  32.707886	   0.000000; % NG
	2	 0.0	 0.0	 3	   0.000000	  27.375807	   0.000000; % NG
	2	 0.0	 0.0	 3	   0.000000	 105.687688	   0.000000; % PEL
	2	 0.0	 0.0	 3	   0.000000	 109.783294	   0.000000; % PEL
	2	 0.0	 0.0	 3	   0.000000	 117.473966	   0.000000; % PEL
	2	 0.0	 0.0	 3	   0.000000	  36.049845	   0.000000; % NG
	2	 0.0	 0.0	 3	   0.000000	  28.661350	   0.000000; % NG
	2	 0.0	 0.0	 3	   0.000000	 105.862811	   0.000000; % PEL
	2	 0.0	 0.0	 3	   0.000000	  42.187626	   0.000000; % NG
	2	 0.0	 0.0	 3	   0.000000	 104.030831	   0.000000; % PEL
	2	 0.0	 0.0	 3	   0.000000	 102.392307	   0.000000; % PEL
	2	 0.0	 0.0	 3	   0.000000	  97.926813	   0.000000; % PEL
	2	 0.0	 0.0	 3	   0.000000	  29.165960	   0.000000; % NG
	2	 0.0	 0.0	 3	   0.000000	  31.807188	   0.000000; % NG
	2	 0.0	 0.0	 3	   0.000000	  17.108732	   0.000000; % COW
	2	 0.0	 0.0	 3	   0.000000	 100.937756	   0.000000; % PEL
	2	 0.0	 0.0	 3	   0.000000	  33.764707	   0.000000; % NG
	2	 0.0	 0.0	 3	   0.000000	  53.574396	   0.000000; % NG
	2	 0.0	 0.0	 3	   0.000000	  29.480994	   0.000000; % NG
	2	 0.0	 0.0	 3	   0.000000	  40.661678	   0.000000; % NG
	2	 0.0	 0.0	 3	   0.000000	 122.879595	   0.000000; % PEL
	2	 0.0	 0.0	 3	   0.000000	  41.468964	   0.000000; % NG
	2	 0.0	 0.0	 3	   0.000000	  27.764040	   0.000000; % NG
	2	 0.0	 0.0	 3	   0.000000	  92.614130	   0.000000; % PEL
	2	 0.0	 0.0	 3	   0.000000	 107.769661	   0.000000; % PEL
	2	 0.0	 0.0	 3	   0.000000	  60.691391	   0.000000; % NG
	2	 0.0	 0.0	 3	   0.000000	  23.594703	   0.000000; % NG
	2	 0.0	 0.0	 3	   0.000000	  35.610774	   0.000000; % NG
	2	 0.0	 0.0	 3	   0.000000	  21.473187	   0.000000; % COW
	2	 0.0	 0.0	 3	   0.000000	  38.395905	   0.000000; % NG
	2	 0.0	 0.0	 3	   0.000000	  25.701638	   0.000000; % NG
	2	 0.0	 0.0	 3	   0.000000	 109.084654	   0.000000; % PEL
	2	 0.0	 0.0	 3	   0.000000	  29.597860	   0.000000; % NG
	2	 0.0	 0.0	 3	   0.000000	  29.066900	   0.000000; % COW
	2	 0.0	 0.0	 3	   0.000000	  46.605613	   0.000000; % NG
...
];

%% branch data
%	fbus	tbus	r	x	b	rateA	rateB	rateC	ratio	angle	status	angmin	angmax
mpc.branch = [
	4644	 1	 0.005726	 0.010482	 0.0	 2186	 2186	 2186	 0.0	 0.0	 1	 -30.0	 30.0;
	5243	 1	 0.01284	 0.025679	 0.0	 910	 910	 910	 0.0	 0.0	 1	 -30.0	 30.0;
	1682	 2	 0.005799	 0.010615	 0.0075	 2441	 2441	 2441	 0.0	 0.0	 1	 -30.0	 30.0;
	1673	 3	 0.134039	 0.309398	 0.0035	 91	 91	 91	 0.0	 0.0	 1	 -30.0	 30.0;
	2302	 3	 0.049131	 0.133283	 0.0015	 215	 215	 215	 0.0	 0.0	 1	 -30.0	 30.0;
	694	 4	 0.025926	 0.109136	 0.0002	 281	 281	 281	 0.0	 0.0	 1	 -30.0	 30.0;
	3940	 4	 0.05	 0.126914	 0.0006	 226	 226	 226	 0.0	 0.0	 1	 -30.0	 30.0;
	5043	 4	 0.02321	 0.097407	 0.0016	 315	 315	 315	 0.0	 0.0	 1	 -30.0	 30.0;
	4414	 5	 0.040564	 0.113631	 0.0013	 245	 245	 245	 0.0	 0.0	 1	 -30.0	 30.0;
	2780	 6	 0.006047	 0.020912	 0.0222	 1398	 1398	 1398	 0.0	 0.0	 1	 -30.0	 30.0;
	2781	 7	 0.012472	 0.032099	 0.0061	 884	 884	 884	 0.0	 0.0	 1	 -30.0	 30.0;
	2468	 8	 0.002607	 0.017462	 0.0324	 540.0	 540.0	 540.0	 0.0	 0.0	 1	 -30.0	 30.0;
	471	 9	 0.053893	 0.14258	 0.0017	 194	 194	 194	 0.0	 0.0	 1	 -30.0	 30.0;
	11	 10	 0.000247	 0.001235	 0.0005	 24078	 24078	 24078	 0.0	 0.0	 1	 -30.0	 30.0;
	11	 10	 0.000247	 0.001235	 0.0002	 24078	 24078	 24078	 0.0	 0.0	 1	 -30.0	 30.0;
	30	 11	 0.039753	 0.100988	 0.0047	 284	 284	 284	 0.0	 0.0	 1	 -30.0	 30.0;
	2930	 11	 0.037654	 0.096173	 0.001	 294	 294	 294	 0.0	 0.0	 1	 -30.0	 30.0;
	2180	 12	 0.014613	 0.060721	 0.0008	 487	 487	 487	 0.0	 0.0	 1	 -30.0	 30.0;
	4018	 12	 0.034064	 0.121139	 0.0015	 242	 242	 242	 0.0	 0.0	 1	 -30.0	 30.0;
	4020	 12	 0.000242	 0.000442	 0.0004	 60355	 60355	 60355	 0.0	 0.0	 1	 -30.0	 30.0;
	115	 13	 2.1e-05	 0.000125	 0.1386	 737.0	 737.0	 737.0	 0.0	 0.0	 1	 -30.0	 30.0;
	2336	 13	 0.000145	 0.001877	 0.0635	 2487.0	 2487.0	 2487.0	 0.0	 0.0	 1	 -30.0	 30.0;
	4574	 13	 0.000319	 0.003234	 0.0838	 1841.0	 1841.0	 1841.0	 0.0	 0.0	 1	 -30.0	 30.0;
	116	 13	 2.1e-05	 0.000125	 0.1386	 737.0	 737.0	 737.0	 0.0	 0.0	 1	 -30.0	 30.0;
	1224	 14	 0.04	 0.134198	 0.0274	 217	 217	 217	 0.0	 0.0	 1	 -30.0	 30.0;
	2875	 14	 0.012222	 0.052346	 0.0026	 565	 565	 565	 0.0	 0.0	 1	 -30.0	 30.0;
	4592	 14	 0.007284	 0.045432	 0.0024	 660	 660	 660	 0.0	 0.0	 1	 -30.0	 30.0;
	4950	 14	 0.059963	 0.154222	 0.0236	 184	 184	 184	 0.0	 0.0	 1	 -30.0	 30.0;
	5229	 14	 0.018025	 0.110988	 0.0073	 270	 270	 270	 0.0	 0.0	 1	 -30.0	 30.0;
	2875	 14	 0.012222	 0.052593	 0.0032	 562	 562	 562	 0.0	 0.0	 1	 -30.0	 30.0;
	4592	 14	 0.007284	 0.044938	 0.0024	 667	 667	 667	 0.0	 0.0	 1	 -30.0	 30.0;
	2907	 15	 0.037541	 0.100529	 0.0011	 284	 284	 284	 0.0	 0.0	 1	 -30.0	 30.0;
	4126	 15	 0.090199	 0.211388	 0.0023	 133	 133	 133	 0.0	 0.0	 1	 -30.0	 30.0;
	4454	 15	 0.09801	 0.267574	 0.0	 107	 107	 107	 0.0	 0.0	 1	 -30.0	 30.0;
	251	 16	 0.071806	 0.191484	 0.0019	 149	 149	 149	 0.0	 0.0	 1	 -30.0	 30.0;
	339	 16	 0.119174	 0.284958	 0.0044	 99	 99	 99	 0.0	 0.0	 1	 -30.0	 30.0;
	5835	 17	 0.022346	 0.061111	 0.0029	 457	 457	 457	 0.0	 0.0	 1	 -30.0	 30.0;
	3728	 18	 0.009383	 0.019753	 0.0	 1194	 1194	 1194	 0.0	 0.0	 1	 -30.0	 30.0;
	5091	 19	 0.000252	 0.000504	 0.0	 52398	 52398	 52398	 0.0	 0.0	 1	 -30.0	 30.0;
	3728	 20	 0.001975	 0.004444	 0.0	 5369	 5369	 5369	 0.0	 0.0	 1	 -30.0	 30.0;
	1353	 21	 0.036296	 0.099012	 0.0045	 282	 282	 282	 0.0	 0.0	 1	 -30.0	 30.0;
	1598	 21	 0.032716	 0.089136	 0.0057	 313	 313	 313	 0.0	 0.0	 1	 -30.0	 30.0;
	1842	 22	 0.138574	 0.351474	 0.0058	 81	 81	 81	 0.0	 0.0	 1	 -30.0	 30.0;
	5020	 22	 0.094407	 0.210456	 0.0044	 132	 132	 132	 0.0	 0.0	 1	 -30.0	 30.0;
	1156	 23	 0.047115	 0.117158	 0.001	 234	 234	 234	 0.0	 0.0	 1	 -30.0	 30.0;
	2705	 23	 0.039557	 0.120937	 0.0132	 233	 233	 233	 0.0	 0.0	 1	 -30.0	 30.0;
	3425	 23	 0.022676	 0.062484	 0.0007	 445	 445	 445	 0.0	 0.0	 1	 -30.0	 30.0;
	144	 24	 0.064568	 0.16716	 0.0113	 180	 180	 180	 0.0	 0.0	 1	 -30.0	 30.0;
	1281	 24	 0.048605	 0.128481	 0.0062	 235	 235	 235	 0.0	 0.0	 1	 -30.0	 30.0;
	491	 25	 0.004815	 0.02963	 0.0016	 1048	 1048	 1048	 0.0	 0.0	 1	 -30.0	 30.0;
	2092	 25	 0.007309	 0.04463	 0.0073	 710	 710	 710	 0.0	 0.0	 1	 -30.0	 30.0;
	611	 26	 0.034321	 0.145802	 0.0073	 199	 199	 199	 0.0	 0.0	 1	 -30.0	 30.0;
	1865	 26	 0.004815	 0.009753	 0.0005	 2731	 2731	 2731	 0.0	 0.0	 1	 -30.0	 30.0;
	2604	 26	 0.049012	 0.133704	 0.0063	 209	 209	 209	 0.0	 0.0	 1	 -30.0	 30.0;
	2923	 26	 0.04642	 0.126543	 0.0058	 221	 221	 221	 0.0	 0.0	 1	 -30.0	 30.0;
	3339	 26	 0.046296	 0.125926	 0.006	 222	 222	 222	 0.0	 0.0	 1	 -30.0	 30.0;
	4629	 26	 0.053704	 0.136753	 0.0065	 203	 203	 203	 0.0	 0.0	 1	 -30.0	 30.0;
	2923	 26	 0.03358	 0.120988	 0.0062	 237	 237	 237	 0.0	 0.0	 1	 -30.0	 30.0;
	534	 27	 0.006163	 0.041067	 0.0759	 446.0	 446.0	 446.0	 0.0	 0.0	 1	 -30.0	 30.0;
	2349	 27	 0.000652	 0.004369	 0.0081	 558.0	 558.0	 558.0	 0.0	 0.0	 1	 -30.0	 30.0;
	2686	 28	 0.050945	 0.131922	 0.0015	 216	 216	 216	 0.0	 0.0	 1	 -30.0	 30.0;
	3893	 28	 0.058781	 0.149005	 0.0017	 190	 190	 190	 0.0	 0.0	 1	 -30.0	 30.0;
	2888	 29	 0.067019	 0.137566	 0.0037	 193	 193	 193	 0.0	 0.0	 1	 -30.0	 30.0;
	3321	 29	 0.032754	 0.088939	 0.0039	 312	 312	 312	 0.0	 0.0	 1	 -30.0	 30.0;
	3321	 29	 0.030184	 0.080096	 0.0053	 345	 345	 345	 0.0	 0.0	 1	 -30.0	 30.0;
	144	 30	 0.066049	 0.187778	 0.0099	 161	 161	 161	 0.0	 0.0	 1	 -30.0	 30.0;
	1553	 30	 0.065062	 0.133704	 0.0062	 212	 212	 212	 0.0	 0.0	 1	 -30.0	 30.0;
	4836	 30	 0.041728	 0.106049	 0.005	 281	 281	 281	 0.0	 0.0	 1	 -30.0	 30.0;
	150	 31	 0.009574	 0.03875	 0.0114	 740	 740	 740	 0.0	 0.0	 1	 -30.0	 30.0;
	3162	 31	 0.000171	 0.000313	 0.0002	 82782	 82782	 82782	 0.0	 0.0	 1	 -30.0	 30.0;
	3693	 31	 0.034266	 0.09423	 0.001	 295	 295	 295	 0.0	 0.0	 1	 -30.0	 30.0;
	4740	 31	 0.006803	 0.028219	 0.0	 1018	 1018	 1018	 0.0	 0.0	 1	 -30.0	 30.0;
	150	 31	 0.008566	 0.037541	 0.0121	 767	 767	 767	 0.0	 0.0	 1	 -30.0	 30.0;
	3730	 32	 0.009733	 0.034089	 0.0185	 902	 902	 902	 0.0	 0.0	 1	 -30.0	 30.0;
	368	 34	 0.000277	 0.002015	 0.003	 288.0	 288.0	 288.0	 0.0	 0.0	 1	 -30.0	 30.0;
	1016	 33	 0.00881	 0.033995	 0.0607	 289.0	 289.0	 289.0	 0.0	 0.0	 1	 -30.0	 30.0;
	1157	 33	 0.004642	 0.019832	 0.0354	 255.0	 255.0	 255.0	 0.0	 0.0	 1	 -30.0	 30.0;
	2582	 34	 0.008861	 0.03506	 0.0623	 288.0	 288.0	 288.0	 0.0	 0.0	 1	 -30.0	 30.0;
	2706	 34	 0.006993	 0.032869	 0.0557	 255.0	 255.0	 255.0	 0.0	 0.0	 1	 -30.0	 30.0;
	4745	 33	 0.002173	 0.008731	 0.0152	 3441	 3441	 3441	 0.0	 0.0	 1	 -30.0	 30.0;
	4853	 34	 0.00077	 0.003121	 0.0051	 9629	 9629	 9629	 0.0	 0.0	 1	 -30.0	 30.0;
	5670	 33	 0.004109	 0.016138	 0.0284	 288.0	 288.0	 288.0	 0.0	 0.0	 1	 -30.0	 30.0;
	370	 35	 8.3e-05	 0.000907	 0.0202	 1034.0	 1034.0	 1034.0	 0.0	 0.0	 1	 -30.0	 30.0;
	1108	 35	 0.000552	 0.006726	 0.0939	 1786.0	 1786.0	 1786.0	 0.0	 0.0	 1	 -30.0	 30.0;
	2149	 35	 0.000512	 0.008012	 0.2455	 2462.0	 2462.0	 2462.0	 0.0	 0.0	 1	 -30.0	 30.0;
	3135	 35	 0.001107	 0.00918	 0.1906	 1644.0	 1644.0	 1644.0	 0.0	 0.0	 1	 -30.0	 30.0;
	369	 36	 6.2e-05	 0.000741	 0.0173	 1095.0	 1095.0	 1095.0	 0.0	 0.0	 1	 -30.0	 30.0;
	2149	 35	 0.000512	 0.008019	 0.2455	 2462.0	 2462.0	 2462.0	 0.0	 0.0	 1	 -30.0	 30.0;
	2149	 36	 0.001153	 0.013123	 0.1841	 1433.0	 1433.0	 1433.0	 0.0	 0.0	 1	 -30.0	 30.0;
	5228	 37	 0.055933	 0.120685	 0.0013	 229	 229	 229	 0.0	 0.0	 1	 -30.0	 30.0;
	5514	 37	 0.039053	 0.084404	 0.001	 328	 328	 328	 0.0	 0.0	 1	 -30.0	 30.0;
	724	 38	 0.00252	 0.006551	 0.0001	 4462	 4462	 4462	 0.0	 0.0	 1	 -30.0	 30.0;
	1228	 39	 0.009877	 0.042222	 0.0021	 697	 697	 697	 0.0	 0.0	 1	 -30.0	 30.0;
	5809	 39	 0.024815	 0.063086	 0.0029	 446	 446	 446	 0.0	 0.0	 1	 -30.0	 30.0;
	1228	 39	 0.009877	 0.042222	 0.0021	 697	 697	 697	 0.0	 0.0	 1	 -30.0	 30.0;
	2250	 40	 0.056173	 0.142593	 0.0066	 198	 198	 198	 0.0	 0.0	 1	 -30.0	 30.0;
	4592	 40	 0.034444	 0.109012	 0.0076	 266	 266	 266	 0.0	 0.0	 1	 -30.0	 30.0;
	431	 41	 0.000158	 0.000672	 0.0719	 331.0	 331.0	 331.0	 0.0	 0.0	 1	 -30.0	 30.0;
	3954	 41	 4.5e-05	 8.9e-05	 0.002	 268.0	 268.0	 268.0	 0.0	 0.0	 1	 -30.0	 30.0;
	1482	 42	 0.01096	 0.020063	 0.009	 1465	 1465	 1465	 0.0	 0.0	 1	 -30.0	 30.0;
	2766	 42	 0.002268	 0.008818	 0.0099	 3678	 3678	 3678	 0.0	 0.0	 1	 -30.0	 30.0;
	2725	 43	 0.001481	 0.006296	 0.0039	 4689	 4689	 4689	 0.0	 0.0	 1	 -30.0	 30.0;
	3488	 44	 0.050617	 0.137012	 0.009	 203	 203	 203	 0.0	 0.0	 1	 -30.0	 30.0;
	4324	 44	 0.074326	 0.194507	 0.0021	 142	 142	 142	 0.0	 0.0	 1	 -30.0	 30.0;
	5094	 45	 0.000247	 0.000741	 0.0	 38027	 38027	 38027	 0.0	 0.0	 1	 -30.0	 30.0;
	1084	 46	 0.049131	 0.134039	 0.001	 207	 207	 207	 0.0	 0.0	 1	 -30.0	 30.0;
	2193	 46	 0.033258	 0.090955	 0.001	 305	 305	 305	 0.0	 0.0	 1	 -30.0	 30.0;
	3305	 46	 0.067437	 0.123442	 0.001	 210	 210	 210	 0.0	 0.0	 1	 -30.0	 30.0;
	1084	 47	 0.037289	 0.118166	 0.001	 239	 239	 239	 0.0	 0.0	 1	 -30.0	 30.0;
	5362	 48	 0.021358	 0.057037	 0.0005	 573	 573	 573	 0.0	 0.0	 1	 -30.0	 30.0;
	1222	 49	 0.071303	 0.180902	 0.0021	 152	 152	 152	 0.0	 0.0	 1	 -30.0	 30.0;
	2344	 49	 0.071554	 0.18191	 0.0021	 152	 152	 152	 0.0	 0.0	 1	 -30.0	 30.0;
	471	 50	 0.028193	 0.104535	 0.0013	 276	 276	 276	 0.0	 0.0	 1	 -30.0	 30.0;
	1676	 50	 0.055404	 0.171429	 0.01	 166	 166	 166	 0.0	 0.0	 1	 -30.0	 30.0;
	3554	 50	 0.010834	 0.071554	 0.001	 413	 413	 413	 0.0	 0.0	 1	 -30.0	 30.0;
	4626	 50	 0.013857	 0.030234	 0.0003	 897	 897	 897	 0.0	 0.0	 1	 -30.0	 30.0;
	3554	 50	 0.011414	 0.070648	 0.0009	 417	 417	 417	 0.0	 0.0	 1	 -30.0	 30.0;
	4626	 50	 0.013757	 0.030108	 0.0003	 901	 901	 901	 0.0	 0.0	 1	 -30.0	 30.0;
	1195	 51	 0.00478	 0.028622	 0.0547	 455.0	 455.0	 455.0	 0.0	 0.0	 1	 -30.0	 30.0;
	1196	 51	 0.00478	 0.028583	 0.0547	 455.0	 455.0	 455.0	 0.0	 0.0	 1	 -30.0	 30.0;
	166	 52	 0.01284	 0.032716	 0.0015	 846	 846	 846	 0.0	 0.0	 1	 -30.0	 30.0;
	5488	 52	 0.014198	 0.036049	 0.0016	 767	 767	 767	 0.0	 0.0	 1	 -30.0	 30.0;
	3349	 53	 0.005291	 0.021668	 0.0003	 1285	 1285	 1285	 0.0	 0.0	 1	 -30.0	 30.0;
	2770	 54	 0.01358	 0.047654	 0.0023	 600	 600	 600	 0.0	 0.0	 1	 -30.0	 30.0;
	375	 55	 0.000257	 0.000514	 0.0294	 53862	 53862	 53862	 0.0	 0.0	 1	 -30.0	 30.0;
	2695	 56	 0.000257	 0.002153	 0.2147	 452.0	 452.0	 452.0	 0.0	 0.0	 1	 -30.0	 30.0;
	3427	 56	 0.000277	 0.000869	 0.0931	 481.0	 481.0	 481.0	 0.0	 0.0	 1	 -30.0	 30.0;
	5095	 57	 0.000756	 0.00252	 0.0	 11560	 11560	 11560	 0.0	 0.0	 1	 -30.0	 30.0;
	3390	 58	 0.000237	 0.00083	 0.1863	 268.0	 268.0	 268.0	 0.0	 0.0	 1	 -30.0	 30.0;
	3566	 58	 0.000178	 0.000612	 0.1377	 268.0	 268.0	 268.0	 0.0	 0.0	 1	 -30.0	 30.0;
	142	 59	 0.030486	 0.076342	 0.002	 370	 370	 370	 0.0	 0.0	 1	 -30.0	 30.0;
	1652	 59	 0.011086	 0.024691	 0.0015	 1124	 1124	 1124	 0.0	 0.0	 1	 -30.0	 30.0;
	2478	 60	 0.044344	 0.170572	 0.0021	 173	 173	 173	 0.0	 0.0	 1	 -30.0	 30.0;
	3526	 60	 0.036709	 0.151776	 0.0017	 195	 195	 195	 0.0	 0.0	 1	 -30.0	 30.0;
	2227	 61	 0.017788	 0.048551	 0.0006	 589	 589	 589	 0.0	 0.0	 1	 -30.0	 30.0;
	2636	 61	 0.057521	 0.145251	 0.0017	 195	 195	 195	 0.0	 0.0	 1	 -30.0	 30.0;
	2047	 62	 0.014109	 0.057949	 0.0029	 510	 510	 510	 0.0	 0.0	 1	 -30.0	 30.0;
	2951	 62	 0.007055	 0.02973	 0.0014	 996	 996	 996	 0.0	 0.0	 1	 -30.0	 30.0;
	373	 63	 0.024263	 0.065911	 0.0007	 434	 434	 434	 0.0	 0.0	 1	 -30.0	 30.0;
	3082	 63	 0.020912	 0.059209	 0.0016	 485	 485	 485	 0.0	 0.0	 1	 -30.0	 30.0;
	145	 64	 0.002568	 0.011753	 0.0203	 424.0	 424.0	 424.0	 0.0	 0.0	 1	 -30.0	 30.0;
	5105	 64	 0.002568	 0.011615	 0.0228	 290.0	 290.0	 290.0	 0.0	 0.0	 1	 -30.0	 30.0;
	4604	 65	 0.006299	 0.033585	 0.0599	 891	 891	 891	 0.0	 0.0	 1	 -30.0	 30.0;
	4604	 65	 0.006299	 0.033661	 0.06	 889	 889	 889	 0.0	 0.0	 1	 -30.0	 30.0;
	1546	 66	 0.102293	 0.226757	 0.0025	 119	 119	 119	 0.0	 0.0	 1	 -30.0	 30.0;
	2291	 66	 0.177551	 0.405291	 0.0046	 67	 67	 67	 0.0	 0.0	 1	 -30.0	 30.0;
	3249	 66	 0.088264	 0.161566	 0.0017	 161	 161	 161	 0.0	 0.0	 1	 -30.0	 30.0;
	3031	 67	 0.007307	 0.014613	 0.0002	 1862	 1862	 1862	 0.0	 0.0	 1	 -30.0	 30.0;
	2193	 68	 0.043336	 0.11867	 0.001	 234	 234	 234	 0.0	 0.0	 1	 -30.0	 30.0;
	2884	 68	 0.067775	 0.139834	 0.001	 191	 191	 191	 0.0	 0.0	 1	 -30.0	 30.0;
	4534	 68	 0.047367	 0.16125	 0.0021	 176	 176	 176	 0.0	 0.0	 1	 -30.0	 30.0;
	5148	 68	 0.004031	 0.016629	 0.001	 1726	 1726	 1726	 0.0	 0.0	 1	 -30.0	 30.0;
...